@<TRIPOS>MOLECULE
GU4
   36    36     1     0     0
SMALL
No Charge or Current Charge


@<TRIPOS>ATOM
      1 O1          46.2860    -4.3510    39.8810 oh         1 GU4      -0.724000
      2 C1          45.5300    -3.7140    40.9140 c6         1 GU4       0.370300
      3 O5          44.4820    -2.9520    40.3090 os         1 GU4      -0.442000
      4 C5          43.4650    -3.7200    39.6190 c6         1 GU4       0.152300
      5 C6          42.5010    -2.6860    38.9550 c3         1 GU4       0.220600
      6 O6          41.8660    -1.8650    39.9530 os         1 GU4      -0.547700
      7 S6          41.1300    -0.5030    39.4060 s6         1 GU4       1.515300
      8 O22         40.2960    -0.0710    40.5370 o          1 GU4      -0.741200
      9 O23         40.3710    -0.9310    38.2210 o          1 GU4      -0.741200
     10 O21         42.2450     0.4060    39.1020 o          1 GU4      -0.741200
     11 C4          42.7620    -4.7230    40.5910 c6         1 GU4       0.204300
     12 O4          41.8060    -5.5210    39.8390 os         1 GU4      -0.583700
     13 S4          40.2230    -5.5750    40.2990 s6         1 GU4       1.504300
     14 O25         40.2270    -5.3830    41.7560 o          1 GU4      -0.718533
     15 O26         39.7750    -6.9060    39.8640 o          1 GU4      -0.718533
     16 O24         39.6040    -4.4730    39.5510 o          1 GU4      -0.718533
     17 C3          43.8830    -5.6470    41.2140 c6         1 GU4       0.222300
     18 O3          43.2950    -6.5670    42.1720 os         1 GU4      -0.552700
     19 S3          43.4480    -8.1920    41.9400 s6         1 GU4       1.516300
     20 O28         42.3790    -8.7690    42.7700 o          1 GU4      -0.727200
     21 O29         44.8010    -8.5080    42.4190 o          1 GU4      -0.727200
     22 O27         43.2690    -8.4000    40.4960 o          1 GU4      -0.727200
     23 C2          44.9580    -4.7510    41.9350 c6         1 GU4       0.139300
     24 O2          46.0550    -5.5580    42.4470 os         1 GU4      -0.579700
     25 S2          46.7560    -5.1200    43.8700 s6         1 GU4       1.515300
     26 O11         45.6850    -5.2680    44.8660 o          1 GU4      -0.728867
     27 O12         47.1730    -3.7290    43.6460 o          1 GU4      -0.728867
     28 O10         47.8690    -6.0660    44.0260 o          1 GU4      -0.728867
     29 HO1         46.8440    -4.9990    40.3650 ho         1 GU4       0.468000
     30 H1          46.1890    -3.0180    41.4550 h2         1 GU4       0.056700
     31 H5          43.9410    -4.2870    38.8070 h1         1 GU4       0.032700
     32 H61         43.1000    -2.0740    38.2670 h1         1 GU4       0.031700
     33 H62         41.7550    -3.2240    38.3550 h1         1 GU4       0.031700
     34 H4          42.2680    -4.1480    41.3870 h1         1 GU4       0.075700
     35 H3          44.3790    -6.2000    40.4030 h1         1 GU4       0.048700
     36 H2          44.4660    -4.2130    42.7590 h1         1 GU4       0.070700
@<TRIPOS>BOND
     1     1     2 1   
     2     1    29 1   
     3     2     3 1   
     4     2    23 1   
     5     2    30 1   
     6     3     4 1   
     7     4     5 1   
     8     4    11 1   
     9     4    31 1   
    10     5     6 1   
    11     5    32 1   
    12     5    33 1   
    13     6     7 1   
    14     7     8 1   
    15     7     9 1   
    16     7    10 1   
    17    11    12 1   
    18    11    17 1   
    19    11    34 1   
    20    12    13 1   
    21    13    14 1   
    22    13    15 1   
    23    13    16 1   
    24    17    18 1   
    25    17    23 1   
    26    17    35 1   
    27    18    19 1   
    28    19    20 1   
    29    19    21 1   
    30    19    22 1   
    31    23    24 1   
    32    23    36 1   
    33    24    25 1   
    34    25    26 1   
    35    25    27 1   
    36    25    28 1   
@<TRIPOS>SUBSTRUCTURE
     1 GU4         1 TEMP              0 ****  ****    0 ROOT
