@<TRIPOS>MOLECULE
GU4
   36    36     1     0     0
SMALL
abcg2


@<TRIPOS>ATOM
      1 O1          46.2220    -4.1230    39.9310 oh         1 GU4      -0.724000
      2 C1          45.4320    -3.5950    40.9560 c6         1 GU4       0.370300
      3 O5          44.3720    -2.9080    40.3880 os         1 GU4      -0.442000
      4 C5          43.4260    -3.7020    39.6940 c6         1 GU4       0.152300
      5 C6          42.4870    -2.7580    38.9800 c3         1 GU4       0.220600
      6 O6          41.9320    -1.8330    39.8990 os         1 GU4      -0.547700
      7 S6          41.2010    -0.5190    39.2350 s6         1 GU4       1.515300
      8 O22         40.6670     0.1360    40.4250 o          1 GU4      -0.741200
      9 O23         40.1870    -1.0490    38.3180 o          1 GU4      -0.741200
     10 O21         42.2730     0.2190    38.5590 o          1 GU4      -0.741200
     11 C4          42.7770    -4.7090    40.6550 c6         1 GU4       0.204300
     12 O4          41.8910    -5.5220    39.9110 os         1 GU4      -0.583700
     13 S4          40.2930    -5.6110    40.3260 s6         1 GU4       1.504300
     14 O25         40.2540    -6.0940    41.7050 o          1 GU4      -0.718533
     15 O26         39.8240    -6.5710    39.3300 o          1 GU4      -0.718533
     16 O24         39.7650    -4.2540    40.1690 o          1 GU4      -0.718533
     17 C3          43.8890    -5.5830    41.2420 c6         1 GU4       0.222300
     18 O3          43.3520    -6.4730    42.1970 os         1 GU4      -0.552700
     19 S3          43.5350    -8.1060    42.0150 s6         1 GU4       1.516300
     20 O28         42.5850    -8.5870    43.0160 o          1 GU4      -0.727200
     21 O29         44.9360    -8.3950    42.3220 o          1 GU4      -0.727200
     22 O27         43.1700    -8.4030    40.6290 o          1 GU4      -0.727200
     23 C2          44.9310    -4.6900    41.9090 c6         1 GU4       0.139300
     24 O2          46.0330    -5.4890    42.2910 os         1 GU4      -0.579700
     25 S2          46.6550    -5.3050    43.8150 s6         1 GU4       1.515300
     26 O11         45.5330    -5.5520    44.7200 o          1 GU4      -0.728867
     27 O12         47.1620    -3.9320    43.8600 o          1 GU4      -0.728867
     28 O10         47.6870    -6.3350    43.8050 o          1 GU4      -0.728867
     29 HO1         46.8400    -4.7550    40.3180 ho         1 GU4       0.468000
     30 H1          45.9890    -2.8490    41.5370 h2         1 GU4       0.056700
     31 H5          43.9140    -4.2820    38.8970 h1         1 GU4       0.032700
     32 H61         43.0670    -2.2380    38.2090 h1         1 GU4       0.031700
     33 H62         41.7100    -3.3360    38.4780 h1         1 GU4       0.031700
     34 H4          42.2660    -4.1740    41.4650 h1         1 GU4       0.075700
     35 H3          44.3600    -6.1300    40.4160 h1         1 GU4       0.048700
     36 H2          44.4670    -4.1990    42.7730 h1         1 GU4       0.070700
@<TRIPOS>BOND
     1     1     2 1   
     2     1    29 1   
     3     2     3 1   
     4     2    23 1   
     5     2    30 1   
     6     3     4 1   
     7     4     5 1   
     8     4    11 1   
     9     4    31 1   
    10     5     6 1   
    11     5    32 1   
    12     5    33 1   
    13     6     7 1   
    14     7     8 1   
    15     7     9 1   
    16     7    10 1   
    17    11    12 1   
    18    11    17 1   
    19    11    34 1   
    20    12    13 1   
    21    13    14 1   
    22    13    15 1   
    23    13    16 1   
    24    17    18 1   
    25    17    23 1   
    26    17    35 1   
    27    18    19 1   
    28    19    20 1   
    29    19    21 1   
    30    19    22 1   
    31    23    24 1   
    32    23    36 1   
    33    24    25 1   
    34    25    26 1   
    35    25    27 1   
    36    25    28 1   
@<TRIPOS>SUBSTRUCTURE
     1 GU4         1 TEMP              0 ****  ****    0 ROOT
