@<TRIPOS>MOLECULE
GU6
   33    33     1     0     0
SMALL
No Charge or Current Charge


@<TRIPOS>ATOM
      1 C1          56.9560    -5.1020   -15.9670 c6         1 GU6       0.342300
      2 O1          57.2410    -4.0520   -16.8960 oh         1 GU6      -0.657000
      3 C2          55.5350    -4.9840   -15.3000 c6         1 GU6       0.210300
      4 O2          54.4870    -4.9580   -16.3080 os         1 GU6      -0.558700
      5 S2          53.7820    -6.3800   -16.7240 s6         1 GU6       1.504300
      6 C3          55.4860    -3.6820   -14.4290 c6         1 GU6       0.188300
      7 O3          54.2200    -3.6030   -13.7210 os         1 GU6      -0.574700
      8 S3          53.4420    -2.1620   -13.6470 s6         1 GU6       1.511300
      9 C4          56.6710    -3.6990   -13.3940 c6         1 GU6       0.137300
     10 O4          56.6970    -2.4970   -12.5810 oh         1 GU6      -0.766000
     11 C5          58.0330    -3.8990   -14.1310 c6         1 GU6       0.163300
     12 O5          57.9920    -5.0830   -14.9720 os         1 GU6      -0.482000
     13 C6          59.2510    -4.0440   -13.1600 c3         1 GU6       0.228600
     14 O6          59.0600    -5.1510   -12.2570 os         1 GU6      -0.576700
     15 S6          60.2950    -5.4520   -11.2200 s6         1 GU6       1.504300
     16 O13         53.0840    -6.8070   -15.5040 o          1 GU6      -0.724200
     17 O14         54.9080    -7.2450   -17.1000 o          1 GU6      -0.724200
     18 O15         52.8920    -6.0230   -17.8390 o          1 GU6      -0.724200
     19 O16         54.4260    -1.3060   -12.9710 o          1 GU6      -0.720533
     20 O17         53.1900    -1.8000   -15.0470 o          1 GU6      -0.720533
     21 O18         52.2350    -2.4450   -12.8590 o          1 GU6      -0.720533
     22 O19         59.8100    -6.5830   -10.4150 o          1 GU6      -0.725200
     23 O20         60.4540    -4.1980   -10.4680 o          1 GU6      -0.725200
     24 O21         61.4310    -5.7750   -12.0950 o          1 GU6      -0.725200
     25 H1          57.0090    -6.0670   -16.4950 h2         1 GU6       0.075700
     26 HO1         58.1580    -4.2180   -17.1970 ho         1 GU6       0.409000
     27 H2          55.3870    -5.8440   -14.6300 h1         1 GU6       0.077700
     28 H3          55.6010    -2.8170   -15.1010 h1         1 GU6       0.059700
     29 H4          56.5180    -4.5740   -12.7430 h1         1 GU6       0.077700
     30 HO4         55.8040    -2.0440   -12.6940 ho         1 GU6       0.561000
     31 H5          58.2260    -3.0230   -14.7670 h1         1 GU6       0.021700
     32 H61         60.1540    -4.1840   -13.7690 h1         1 GU6       0.026200
     33 H62         59.3660    -3.1030   -12.6060 h1         1 GU6       0.026200
@<TRIPOS>BOND
     1     1     2 1   
     2     1     3 1   
     3     1    12 1   
     4     1    25 1   
     5     2    26 1   
     6     3     4 1   
     7     3     6 1   
     8     3    27 1   
     9     4     5 1   
    10     5    16 1   
    11     5    17 1   
    12     5    18 1   
    13     6     7 1   
    14     6     9 1   
    15     6    28 1   
    16     7     8 1   
    17     8    19 1   
    18     8    20 1   
    19     8    21 1   
    20     9    10 1   
    21     9    11 1   
    22     9    29 1   
    23    10    30 1   
    24    11    12 1   
    25    11    13 1   
    26    11    31 1   
    27    13    14 1   
    28    13    32 1   
    29    13    33 1   
    30    14    15 1   
    31    15    22 1   
    32    15    23 1   
    33    15    24 1   
@<TRIPOS>SUBSTRUCTURE
     1 GU6         1 TEMP              0 ****  ****    0 ROOT
