@<TRIPOS>MOLECULE
GU6
   33    33     1     0     0
SMALL
abcg2


@<TRIPOS>ATOM
      1 C1          57.0090    -5.0460   -16.0890 c6         1 GU6       0.342300
      2 O1          57.1220    -3.9600   -16.9480 oh         1 GU6      -0.657000
      3 C2          55.6720    -4.9460   -15.3570 c6         1 GU6       0.210300
      4 O2          54.6000    -4.8630   -16.2720 os         1 GU6      -0.558700
      5 S2          53.7520    -6.2450   -16.5880 s6         1 GU6       1.504300
      6 C3          55.6490    -3.7190   -14.4550 c6         1 GU6       0.188300
      7 O3          54.4520    -3.7860   -13.6810 os         1 GU6      -0.574700
      8 S3          53.5720    -2.4250   -13.4330 s6         1 GU6       1.511300
      9 C4          56.8540    -3.7470   -13.5140 c6         1 GU6       0.137300
     10 O4          57.0160    -2.5620   -12.7850 oh         1 GU6      -0.766000
     11 C5          58.1470    -3.9730   -14.3040 c6         1 GU6       0.163300
     12 O5          58.0430    -5.1070   -15.1460 os         1 GU6      -0.482000
     13 C6          59.3510    -4.1830   -13.4100 c3         1 GU6       0.228600
     14 O6          59.0980    -5.2660   -12.5280 os         1 GU6      -0.576700
     15 S6          59.7600    -5.2060   -11.0230 s6         1 GU6       1.504300
     16 O13         53.1860    -6.6600   -15.3030 o          1 GU6      -0.724200
     17 O14         54.7330    -7.1920   -17.1270 o          1 GU6      -0.724200
     18 O15         52.7830    -5.7430   -17.5570 o          1 GU6      -0.724200
     19 O16         54.5300    -1.4520   -12.8640 o          1 GU6      -0.720533
     20 O17         53.0620    -2.0160   -14.7390 o          1 GU6      -0.720533
     21 O18         52.5760    -2.9090   -12.4880 o          1 GU6      -0.720533
     22 O19         59.1040    -6.3460   -10.3900 o          1 GU6      -0.725200
     23 O20         59.3850    -3.9010   -10.4700 o          1 GU6      -0.725200
     24 O21         61.2010    -5.3630   -11.2320 o          1 GU6      -0.725200
     25 H1          57.0620    -5.9950   -16.6320 h2         1 GU6       0.075700
     26 HO1         57.8460    -4.1160   -17.5630 ho         1 GU6       0.409000
     27 H2          55.5860    -5.8350   -14.7200 h1         1 GU6       0.077700
     28 H3          55.6710    -2.8080   -15.0670 h1         1 GU6       0.059700
     29 H4          56.7010    -4.6050   -12.8430 h1         1 GU6       0.077700
     30 HO4         56.1550    -2.1140   -12.6880 ho         1 GU6       0.561000
     31 H5          58.3500    -3.0710   -14.8970 h1         1 GU6       0.021700
     32 H61         60.2290    -4.3940   -14.0280 h1         1 GU6       0.026200
     33 H62         59.5440    -3.2550   -12.8670 h1         1 GU6       0.026200
@<TRIPOS>BOND
     1     1     2 1   
     2     1     3 1   
     3     1    12 1   
     4     1    25 1   
     5     2    26 1   
     6     3     4 1   
     7     3     6 1   
     8     3    27 1   
     9     4     5 1   
    10     5    16 1   
    11     5    17 1   
    12     5    18 1   
    13     6     7 1   
    14     6     9 1   
    15     6    28 1   
    16     7     8 1   
    17     8    19 1   
    18     8    20 1   
    19     8    21 1   
    20     9    10 1   
    21     9    11 1   
    22     9    29 1   
    23    10    30 1   
    24    11    12 1   
    25    11    13 1   
    26    11    31 1   
    27    13    14 1   
    28    13    32 1   
    29    13    33 1   
    30    14    15 1   
    31    15    22 1   
    32    15    23 1   
    33    15    24 1   
@<TRIPOS>SUBSTRUCTURE
     1 GU6         1 TEMP              0 ****  ****    0 ROOT
