@<TRIPOS>MOLECULE
GU7
   35    36     1     0     0
SMALL
No Charge or Current Charge


@<TRIPOS>ATOM
      1 N9           2.4100     0.0680     2.5640 nc         1 GU7      -0.668000
      2 C8           2.3570     0.5600     1.3290 cd         1 GU7       0.449400
      3 N7           1.0350     0.7310     0.9250 na         1 GU7      -0.132500
      4 C5           0.2450     0.3140     1.9870 cd         1 GU7      -0.370600
      5 C6          -1.1990     0.2420     2.1830 c          1 GU7       0.627600
      6 O6          -2.0450     0.5670     1.3670 o          1 GU7      -0.561000
      7 N1          -1.5010    -0.2410     3.4080 ns         1 GU7      -0.448400
      8 C2          -0.5650    -0.6030     4.3010 cd         1 GU7       0.702800
      9 N2          -0.9870    -1.0600     5.4670 nv         1 GU7      -1.038200
     10 N3           0.7310    -0.5570     4.1620 nc         1 GU7      -0.728700
     11 C4           1.1210    -0.0750     2.9470 cc         1 GU7       0.550000
     12 C10          0.5830     1.2460    -0.3790 c3         1 GU7       0.074600
     13 C11          0.2170     0.1230    -1.3720 c3         1 GU7       0.143800
     14 N12         -0.1910     0.6860    -2.6820 n7         1 GU7      -0.860400
     15 C13         -0.5770    -0.3040    -3.7380 c3         1 GU7       0.179500
     16 C14         -1.2220     0.4320    -4.9530 c3         1 GU7       0.166600
     17 O15         -1.8390    -0.4950    -5.8650 oh         1 GU7      -0.655500
     18 C16          0.6120    -1.2330    -4.1700 c3         1 GU7       0.166600
     19 O17          1.7310    -0.4940    -4.7010 oh         1 GU7      -0.655500
     20 HC8          3.1950     0.8070     0.6880 h5         1 GU7       0.060100
     21 HN1         -2.4780    -0.3440     3.6220 hn         1 GU7       0.323500
     22 HN21        -0.2560    -1.1360     6.1630 hn         1 GU7       0.494000
     23 HN22        -1.8790    -0.7230     5.8080 hn         1 GU7       0.494000
     24 H101        -0.2870     1.8950    -0.2200 h1         1 GU7       0.074700
     25 H102         1.3830     1.8610    -0.8100 h1         1 GU7       0.074700
     26 H111         1.0920    -0.5310    -1.4870 h1         1 GU7       0.045700
     27 H112        -0.5940    -0.4800    -0.9420 h1         1 GU7       0.045700
     28 H12         -1.0000     1.2990    -2.5210 hn         1 GU7       0.415000
     29 H13         -1.3570    -0.9590    -3.3230 h1         1 GU7       0.038700
     30 H141        -1.9800     1.1330    -4.5790 h1         1 GU7       0.026450
     31 H142        -0.4550     1.0240    -5.4700 h1         1 GU7       0.026450
     32 H15         -2.2130     0.0360    -6.6030 ho         1 GU7       0.442500
     33 H161         0.9330    -1.8280    -3.3050 h1         1 GU7       0.026450
     34 H162         0.2470    -1.9470    -4.9210 h1         1 GU7       0.026450
     35 H17          2.4370    -1.1480    -4.8970 ho         1 GU7       0.442500
@<TRIPOS>BOND
     1     1     2 2   
     2     1    11 1   
     3     2     3 1   
     4     2    20 1   
     5     3     4 1   
     6     3    12 1   
     7     4     5 1   
     8     4    11 2   
     9     5     6 2   
    10     5     7 1   
    11     7     8 1   
    12     7    21 1   
    13     8     9 1   
    14     8    10 2   
    15     9    22 1   
    16     9    23 1   
    17    10    11 1   
    18    12    13 1   
    19    12    24 1   
    20    12    25 1   
    21    13    14 1   
    22    13    26 1   
    23    13    27 1   
    24    14    15 1   
    25    14    28 1   
    26    15    16 1   
    27    15    18 1   
    28    15    29 1   
    29    16    17 1   
    30    16    30 1   
    31    16    31 1   
    32    17    32 1   
    33    18    19 1   
    34    18    33 1   
    35    18    34 1   
    36    19    35 1   
@<TRIPOS>SUBSTRUCTURE
     1 GU7         1 TEMP              0 ****  ****    0 ROOT
