@<TRIPOS>MOLECULE
GU7
   35    36     1     0     0
SMALL
bcc


@<TRIPOS>ATOM
      1 N9           2.3960    -0.0630     2.5560 nc         1 GU7      -0.668000
      2 C8           2.3730     0.4220     1.3330 cd         1 GU7       0.449400
      3 N7           1.1390     0.6820     0.8760 na         1 GU7      -0.153900
      4 C5           0.2840     0.3240     1.8920 cd         1 GU7      -0.385200
      5 C6          -1.1270     0.3800     2.0240 c          1 GU7       0.770100
      6 O6          -1.9620     0.7640     1.2180 o          1 GU7      -0.636500
      7 N1          -1.5020    -0.0940     3.2800 ns         1 GU7      -0.515400
      8 C2          -0.6500    -0.5370     4.2580 cd         1 GU7       0.702800
      9 N2          -1.2260    -0.9940     5.3870 nv         1 GU7      -0.927800
     10 N3           0.6450    -0.5670     4.1210 nc         1 GU7      -0.728700
     11 C4           1.0920    -0.1310     2.9220 cc         1 GU7       0.615300
     12 C10          0.7920     1.1640    -0.4460 c3         1 GU7       0.045300
     13 C11          0.2650     0.0490    -1.3390 c3         1 GU7       0.143800
     14 N12         -0.1130     0.6060    -2.6190 n7         1 GU7      -0.805200
     15 C13         -0.5040    -0.3870    -3.6110 c3         1 GU7       0.179500
     16 C14         -1.3670     0.3110    -4.6570 c3         1 GU7       0.143400
     17 O15         -1.7620    -0.6260    -5.6300 oh         1 GU7      -0.593300
     18 C16          0.7100    -1.0700    -4.2220 c3         1 GU7       0.143400
     19 O17          1.4900    -0.1320    -4.9250 oh         1 GU7      -0.593300
     20 HC8          3.2470     0.6110     0.7260 h5         1 GU7       0.060100
     21 HN1         -2.4970    -0.1080     3.4650 hn         1 GU7       0.323500
     22 HN21        -0.6150    -1.1510     6.1710 hn         1 GU7       0.438800
     23 HN22        -2.1660    -0.7210     5.6200 hn         1 GU7       0.438800
     24 H101         0.0530     1.9580    -0.3430 h1         1 GU7       0.074700
     25 H102         1.6870     1.6030    -0.8850 h1         1 GU7       0.074700
     26 H111         1.0590    -0.6870    -1.4800 h1         1 GU7       0.045700
     27 H112        -0.5630    -0.4730    -0.8370 h1         1 GU7       0.045700
     28 H12         -0.8880     1.2410    -2.4680 hn         1 GU7       0.359800
     29 H13         -1.1120    -1.1890    -3.1590 h1         1 GU7       0.038700
     30 H141        -2.2390     0.7460    -4.1490 h1         1 GU7       0.026450
     31 H142        -0.8030     1.1450    -5.0930 h1         1 GU7       0.026450
     32 H15         -2.2560    -0.1610    -6.3110 ho         1 GU7       0.403500
     33 H161         1.2890    -1.5540    -3.4240 h1         1 GU7       0.026450
     34 H162         0.3580    -1.8790    -4.8730 h1         1 GU7       0.026450
     35 H17          2.1770    -0.6120    -5.3940 ho         1 GU7       0.403500
@<TRIPOS>BOND
     1     1     2 2   
     2     1    11 1   
     3     2     3 1   
     4     2    20 1   
     5     3     4 1   
     6     3    12 1   
     7     4     5 1   
     8     4    11 2   
     9     5     6 2   
    10     5     7 1   
    11     7     8 1   
    12     7    21 1   
    13     8     9 1   
    14     8    10 2   
    15     9    22 1   
    16     9    23 1   
    17    10    11 1   
    18    12    13 1   
    19    12    24 1   
    20    12    25 1   
    21    13    14 1   
    22    13    26 1   
    23    13    27 1   
    24    14    15 1   
    25    14    28 1   
    26    15    16 1   
    27    15    18 1   
    28    15    29 1   
    29    16    17 1   
    30    16    30 1   
    31    16    31 1   
    32    17    32 1   
    33    18    19 1   
    34    18    33 1   
    35    18    34 1   
    36    19    35 1   
@<TRIPOS>SUBSTRUCTURE
     1 GU7         1 TEMP              0 ****  ****    0 ROOT
