@<TRIPOS>MOLECULE
GUA
   15    14     1     0     0
SMALL
abcg2


@<TRIPOS>ATOM
      1 C1          -0.0330     0.0120     2.5980 c          1 GUA       0.710500
      2 C2          -0.7890     0.0050     1.2590 c3         1 GUA      -0.197400
      3 C3           0.0670    -0.0040     0.0020 c3         1 GUA      -0.041400
      4 C4          -0.7700    -0.0150    -1.2680 c3         1 GUA      -0.197400
      5 C5           0.0060    -0.0250    -2.5970 c          1 GUA       0.710500
      6 O1           1.2140     0.0250     2.5670 o          1 GUA      -0.767000
      7 O2          -0.7420     0.0040     3.6280 o          1 GUA      -0.767000
      8 O3           1.2520     0.0180    -2.5500 o          1 GUA      -0.767000
      9 O4          -0.6880    -0.0730    -3.6360 o          1 GUA      -0.767000
     10 H21         -1.4630    -0.8620     1.2540 hc         1 GUA       0.000950
     11 H22         -1.4600     0.8730     1.2430 hc         1 GUA       0.000950
     12 H31          0.7260     0.8670     0.0010 hc         1 GUA       0.039200
     13 H32          0.7270    -0.8750     0.0150 hc         1 GUA       0.039200
     14 H41         -1.4410    -0.8830    -1.2620 hc         1 GUA       0.000950
     15 H42         -1.4410     0.8530    -1.2760 hc         1 GUA       0.000950
@<TRIPOS>BOND
     1     1     2 1   
     2     1     6 1   
     3     1     7 1   
     4     2     3 1   
     5     2    10 1   
     6     2    11 1   
     7     3     4 1   
     8     3    12 1   
     9     3    13 1   
    10     4     5 1   
    11     4    14 1   
    12     4    15 1   
    13     5     8 1   
    14     5     9 1   
@<TRIPOS>SUBSTRUCTURE
     1 GUA         1 TEMP              0 ****  ****    0 ROOT
