@<TRIPOS>MOLECULE
GUA
   15    14     1     0     0
SMALL
No Charge or Current Charge


@<TRIPOS>ATOM
      1 C1          -0.0190    -0.1370     2.5350 c          1 GUA       0.710500
      2 C2          -0.8550     0.2120     1.2880 c3         1 GUA      -0.197400
      3 C3          -0.0550    -0.1160     0.0020 c3         1 GUA      -0.041400
      4 C4          -0.8280     0.2070    -1.3020 c3         1 GUA      -0.197400
      5 C5           0.0340    -0.1460    -2.5310 c          1 GUA       0.710500
      6 O1           0.7230     0.7180     2.9930 o          1 GUA      -0.767000
      7 O2          -0.0990    -1.2690     2.9880 o          1 GUA      -0.767000
      8 O3           0.7850     0.7080    -2.9760 o          1 GUA      -0.767000
      9 O4          -0.0370    -1.2800    -2.9810 o          1 GUA      -0.767000
     10 H21         -1.7600    -0.4080     1.2440 hc         1 GUA       0.000950
     11 H22         -1.0580     1.2900     1.2480 hc         1 GUA       0.000950
     12 H31          0.8860     0.4480     0.0100 hc         1 GUA       0.039200
     13 H32          0.2130    -1.1800     0.0060 hc         1 GUA       0.039200
     14 H41         -1.7340    -0.4120    -1.2750 hc         1 GUA       0.000950
     15 H42         -1.0320     1.2850    -1.2700 hc         1 GUA       0.000950
@<TRIPOS>BOND
     1     1     2 1   
     2     1     6 1   
     3     1     7 1   
     4     2     3 1   
     5     2    10 1   
     6     2    11 1   
     7     3     4 1   
     8     3    12 1   
     9     3    13 1   
    10     4     5 1   
    11     4    14 1   
    12     4    15 1   
    13     5     8 1   
    14     5     9 1   
@<TRIPOS>SUBSTRUCTURE
     1 GUA         1 TEMP              0 ****  ****    0 ROOT
