@<TRIPOS>MOLECULE
GUB
   48    51     1     0     0
SMALL
No Charge or Current Charge


@<TRIPOS>ATOM
      1 C2           4.7670     0.9050     0.6540 c3         1 GUB      -0.049100
      2 C3           3.8170    -0.0670    -0.0720 c3         1 GUB       0.224800
      3 C5           1.2880    -0.5180    -0.1030 ca         1 GUB       0.449900
      4 O18         -5.3220     2.5950    -1.7630 oh         1 GUB      -0.703000
      5 C17         -6.0230     1.6280    -0.9600 c3         1 GUB       0.163600
      6 C16         -5.0640     0.9310     0.0480 c5         1 GUB       0.131300
      7 C19         -5.7420     0.0380     1.1350 c5         1 GUB       0.100300
      8 O20         -6.7040    -0.9020     0.6040 oh         1 GUB      -0.688000
      9 O15         -4.1900    -0.0020    -0.6220 os         1 GUB      -0.433000
     10 C14         -3.5510    -0.7980     0.4010 c5         1 GUB       0.314300
     11 C21         -4.4850    -0.7140     1.6750 c5         1 GUB       0.135300
     12 O22         -4.8980    -1.9870     2.1800 oh         1 GUB      -0.670000
     13 N13         -2.1610    -0.3540     0.5440 na         1 GUB      -0.286300
     14 C12         -1.6990     0.6670     1.3820 cc         1 GUB       0.408700
     15 N11         -0.3620     0.8010     1.3060 nd         1 GUB      -0.557100
     16 C10          0.0060    -0.1810     0.3810 ca         1 GUB      -0.101600
     17 C9          -1.0730    -0.8860    -0.0880 ca         1 GUB       0.143500
     18 N6           1.4440    -1.5080    -1.0040 nb         1 GUB      -0.301000
     19 C7           0.3140    -2.1410    -1.4010 ca         1 GUB       0.181900
     20 N8          -0.9490    -1.8810    -0.9870 nb         1 GUB      -0.213000
     21 N4           2.4200     0.1600     0.3340 nu         1 GUB      -0.914100
     22 C1           6.2200     0.6900     0.2490 ca         1 GUB      -0.082300
     23 C23          6.7630     1.3860    -0.8490 ca         1 GUB      -0.104500
     24 C24          8.1020     1.1810    -1.2260 ca         1 GUB      -0.109000
     25 C25          8.9050     0.2790    -0.5090 ca         1 GUB      -0.109000
     26 C26          8.3680    -0.4190     0.5860 ca         1 GUB      -0.109000
     27 C27          7.0300    -0.2150     0.9640 ca         1 GUB      -0.104500
     28 H2           4.4650     1.9360     0.4320 hc         1 GUB       0.053700
     29 H2A          4.6560     0.7760     1.7370 hc         1 GUB       0.053700
     30 H3           3.9220     0.0730    -1.1570 h1         1 GUB       0.062700
     31 H3A          4.1150    -1.0990     0.1620 h1         1 GUB       0.062700
     32 HO18        -5.9670     2.9430    -2.4230 ho         1 GUB       0.507000
     33 H17         -6.8230     2.1240    -0.3930 h1         1 GUB       0.028700
     34 H17A        -6.4900     0.8650    -1.5970 h1         1 GUB       0.028700
     35 H16         -4.4520     1.7070     0.5290 h1         1 GUB       0.064700
     36 H19         -6.2020     0.6530     1.9220 h1         1 GUB       0.051700
     37 HO20        -7.5230    -0.4010     0.3780 ho         1 GUB       0.505000
     38 H14         -3.4950    -1.8390     0.0580 h2         1 GUB       0.128700
     39 H21         -4.0090    -0.1320     2.4750 h1         1 GUB       0.043700
     40 HO22        -5.7730    -2.1160     1.7290 ho         1 GUB       0.511000
     41 H12         -2.3610     1.2640     1.9980 h5         1 GUB       0.064800
     42 H7           0.4340    -2.9420    -2.1280 h5         1 GUB       0.045100
     43 HN4          2.2230     0.8950     1.0140 hn         1 GUB       0.507000
     44 H23          6.1470     2.0850    -1.4110 ha         1 GUB       0.112000
     45 H24          8.5160     1.7220    -2.0740 ha         1 GUB       0.112500
     46 H25          9.9410     0.1210    -0.8010 ha         1 GUB       0.112000
     47 H26          8.9890    -1.1190     1.1410 ha         1 GUB       0.112500
     48 H27          6.6220    -0.7620     1.8110 ha         1 GUB       0.112000
@<TRIPOS>BOND
     1     1     2 1   
     2     1    22 1   
     3     1    28 1   
     4     1    29 1   
     5     2    21 1   
     6     2    30 1   
     7     2    31 1   
     8     3    16 ar  
     9     3    18 ar  
    10     3    21 1   
    11     4     5 1   
    12     4    32 1   
    13     5     6 1   
    14     5    33 1   
    15     5    34 1   
    16     6     7 1   
    17     6     9 1   
    18     6    35 1   
    19     7     8 1   
    20     7    11 1   
    21     7    36 1   
    22     8    37 1   
    23     9    10 1   
    24    10    11 1   
    25    10    13 1   
    26    10    38 1   
    27    11    12 1   
    28    11    39 1   
    29    12    40 1   
    30    13    14 1   
    31    13    17 1   
    32    14    15 2   
    33    14    41 1   
    34    15    16 1   
    35    16    17 ar  
    36    17    20 ar  
    37    18    19 ar  
    38    19    20 ar  
    39    19    42 1   
    40    21    43 1   
    41    22    23 ar  
    42    22    27 ar  
    43    23    24 ar  
    44    23    44 1   
    45    24    25 ar  
    46    24    45 1   
    47    25    26 ar  
    48    25    46 1   
    49    26    27 ar  
    50    26    47 1   
    51    27    48 1   
@<TRIPOS>SUBSTRUCTURE
     1 GUB         1 TEMP              0 ****  ****    0 ROOT
