@<TRIPOS>MOLECULE
GUB
   48    51     1     0     0
SMALL
abcg2


@<TRIPOS>ATOM
      1 C2           4.7960     1.0940     0.3210 c3         1 GUB      -0.049100
      2 C3           3.8320    -0.0910     0.3200 c3         1 GUB       0.224800
      3 C5           1.3800    -0.1700     0.0290 ca         1 GUB       0.449900
      4 O18         -6.2640     2.8190    -0.9240 oh         1 GUB      -0.703000
      5 C17         -6.5080     1.4630    -0.6370 c3         1 GUB       0.163600
      6 C16         -5.4550     0.9790     0.3290 c5         1 GUB       0.131300
      7 C19         -5.6600    -0.4510     0.8350 c5         1 GUB       0.100300
      8 O20         -6.0880    -1.3470    -0.1570 oh         1 GUB      -0.688000
      9 O15         -4.1660     0.9870    -0.3000 os         1 GUB      -0.433000
     10 C14         -3.4600    -0.1740     0.0310 c5         1 GUB       0.314300
     11 C21         -4.2210    -0.8020     1.1990 c5         1 GUB       0.135300
     12 O22         -3.9000    -2.1510     1.2970 oh         1 GUB      -0.670000
     13 N13         -2.0930     0.1580     0.3490 na         1 GUB      -0.286300
     14 C12         -1.6550     1.0440     1.2960 cc         1 GUB       0.408700
     15 N11         -0.3590     1.1170     1.3720 nd         1 GUB      -0.557100
     16 C10          0.0890     0.2290     0.4290 ca         1 GUB      -0.101600
     17 C9          -0.9730    -0.3760    -0.2220 ca         1 GUB       0.143500
     18 N6           1.4740    -1.0810    -0.9450 nb         1 GUB      -0.301000
     19 C7           0.3620    -1.5670    -1.4920 ca         1 GUB       0.181900
     20 N8          -0.8920    -1.2820    -1.1940 nb         1 GUB      -0.213000
     21 N4           2.4800     0.3410     0.5910 nu         1 GUB      -0.914100
     22 C1           6.2110     0.6310     0.1140 ca         1 GUB      -0.082300
     23 C23          6.7410     0.5080    -1.1680 ca         1 GUB      -0.104500
     24 C24          8.0330     0.0350    -1.3620 ca         1 GUB      -0.109000
     25 C25          8.8150    -0.3250    -0.2720 ca         1 GUB      -0.109000
     26 C26          8.2970    -0.2070     1.0110 ca         1 GUB      -0.109000
     27 C27          7.0050     0.2670     1.2000 ca         1 GUB      -0.104500
     28 H2           4.5060     1.7950    -0.4640 hc         1 GUB       0.053700
     29 H2A          4.7180     1.6270     1.2730 hc         1 GUB       0.053700
     30 H3           3.8480    -0.5870    -0.6480 h1         1 GUB       0.062700
     31 H3A          4.1520    -0.8280     1.0640 h1         1 GUB       0.062700
     32 HO18        -6.8850     3.0950    -1.6040 ho         1 GUB       0.507000
     33 H17         -7.4910     1.3200    -0.1660 h1         1 GUB       0.028700
     34 H17A        -6.4880     0.8460    -1.5430 h1         1 GUB       0.028700
     35 H16         -5.4330     1.6550     1.1940 h1         1 GUB       0.064700
     36 H19         -6.3240    -0.4590     1.7070 h1         1 GUB       0.051700
     37 HO20        -7.0360    -1.2450    -0.2840 ho         1 GUB       0.505000
     38 H14         -3.4120    -0.8740    -0.8110 h2         1 GUB       0.128700
     39 H21         -3.9710    -0.2560     2.1200 h1         1 GUB       0.043700
     40 HO22        -4.2620    -2.4980     2.1190 ho         1 GUB       0.511000
     41 H12         -2.3410     1.6200     1.8980 h5         1 GUB       0.064800
     42 H7           0.5120    -2.2960    -2.2810 h5         1 GUB       0.045100
     43 HN4          2.3410     0.9550     1.3800 hn         1 GUB       0.507000
     44 H23          6.1410     0.7890    -2.0260 ha         1 GUB       0.112000
     45 H24          8.4290    -0.0510    -2.3660 ha         1 GUB       0.112500
     46 H25          9.8220    -0.6930    -0.4220 ha         1 GUB       0.112000
     47 H26          8.8990    -0.4800     1.8680 ha         1 GUB       0.112500
     48 H27          6.6090     0.3600     2.2050 ha         1 GUB       0.112000
@<TRIPOS>BOND
     1     1     2 1   
     2     1    22 1   
     3     1    28 1   
     4     1    29 1   
     5     2    21 1   
     6     2    30 1   
     7     2    31 1   
     8     3    16 ar  
     9     3    18 ar  
    10     3    21 1   
    11     4     5 1   
    12     4    32 1   
    13     5     6 1   
    14     5    33 1   
    15     5    34 1   
    16     6     7 1   
    17     6     9 1   
    18     6    35 1   
    19     7     8 1   
    20     7    11 1   
    21     7    36 1   
    22     8    37 1   
    23     9    10 1   
    24    10    11 1   
    25    10    13 1   
    26    10    38 1   
    27    11    12 1   
    28    11    39 1   
    29    12    40 1   
    30    13    14 1   
    31    13    17 1   
    32    14    15 2   
    33    14    41 1   
    34    15    16 1   
    35    16    17 ar  
    36    17    20 ar  
    37    18    19 ar  
    38    19    20 ar  
    39    19    42 1   
    40    21    43 1   
    41    22    23 ar  
    42    22    27 ar  
    43    23    24 ar  
    44    23    44 1   
    45    24    25 ar  
    46    24    45 1   
    47    25    26 ar  
    48    25    46 1   
    49    26    27 ar  
    50    26    47 1   
    51    27    48 1   
@<TRIPOS>SUBSTRUCTURE
     1 GUB         1 TEMP              0 ****  ****    0 ROOT
