@<TRIPOS>MOLECULE
GUC
   50    53     1     0     0
SMALL
bcc


@<TRIPOS>ATOM
      1 C1          23.5990    43.0220    -4.2210 c3         1 GUC      -0.045800
      2 C2          22.2450    42.7760    -3.6250 ca         1 GUC      -0.121600
      3 C3          22.0250    43.1700    -2.3080 ca         1 GUC      -0.076000
      4 C4          20.7950    42.9600    -1.7030 ca         1 GUC      -0.111300
      5 C5          19.7840    42.3470    -2.4400 ca         1 GUC       0.442200
      6 C6          21.1600    42.1700    -4.2730 ca         1 GUC       0.371800
      7 N1          19.9830    41.9730    -3.6820 nb         1 GUC      -0.688000
      8 N2          20.1030    41.0870    -6.1150 ns         1 GUC      -0.451100
      9 N3          15.5630    42.7620   -10.8960 nb         1 GUC      -0.690000
     10 C7          21.2390    41.6830    -5.7010 c          1 GUC       0.581600
     11 C8          19.8190    40.4810    -7.3410 ca         1 GUC       0.058600
     12 C9          20.7200    40.3700    -8.3970 ca         1 GUC      -0.125000
     13 C10         20.3220    39.7090    -9.5480 ca         1 GUC      -0.146000
     14 C11         19.0540    39.1760    -9.6460 ca         1 GUC       0.111900
     15 C12         18.1100    39.2920    -8.6300 ca         1 GUC      -0.093300
     16 C13         18.5360    39.9470    -7.4810 ca         1 GUC      -0.146000
     17 C14         16.7060    38.6790    -8.7140 c6         1 GUC       0.222500
     18 C15         16.8330    37.1530    -8.6890 c3         1 GUC      -0.071100
     19 N6          20.3640    43.6710     0.7360 n1         1 GUC      -0.338800
     20 C23         20.5610    43.3570    -0.3540 cg         1 GUC       0.228800
     21 O           22.2410    41.8290    -6.3770 o          1 GUC      -0.582100
     22 F1          18.7510    38.5140   -10.7800 f          1 GUC      -0.147900
     23 N5          15.9230    39.0510    -7.5440 n2         1 GUC      -0.683900
     24 C22         15.3310    40.1850    -7.5340 ce         1 GUC       0.674800
     25 N4          14.6540    40.6010    -6.4330 nv         1 GUC      -0.917800
     26 C18         15.3950    41.1360    -8.6710 ca         1 GUC      -0.136900
     27 C19         15.2030    42.5100    -8.5540 ca         1 GUC      -0.238300
     28 C20         15.3020    43.2790    -9.6980 ca         1 GUC       0.427200
     29 C21         15.7440    41.4750   -10.9700 ca         1 GUC       0.644500
     30 F2          15.9970    40.9980   -12.1920 f          1 GUC      -0.221200
     31 C17         15.6970    40.5850    -9.9090 ca         1 GUC      -0.199600
     32 C16         15.9590    39.1180    -9.9840 c6         1 GUC      -0.048100
     33 H1          23.5460    43.6850    -5.0820 hc         1 GUC       0.060700
     34 H2          24.2470    43.4820    -3.4780 hc         1 GUC       0.060700
     35 H3          24.0680    42.0970    -4.5520 hc         1 GUC       0.060700
     36 H4          22.8240    43.6440    -1.7530 ha         1 GUC       0.154000
     37 H5          18.8070    42.1630    -2.0080 h4         1 GUC       0.037100
     38 H6          19.3650    41.0660    -5.4210 hn         1 GUC       0.352500
     39 H7          21.7160    40.7750    -8.3380 ha         1 GUC       0.169000
     40 H8          21.0110    39.6010   -10.3760 ha         1 GUC       0.152000
     41 H9          17.8500    40.0360    -6.6500 ha         1 GUC       0.149000
     42 H10         17.3400    36.8340    -7.7780 hc         1 GUC       0.047033
     43 H11         15.8420    36.6990    -8.7040 hc         1 GUC       0.047033
     44 H12         17.3910    36.7760    -9.5440 hc         1 GUC       0.047033
     45 H13         14.5070    39.9120    -5.7130 hn         1 GUC       0.420300
     46 H14         13.8960    41.2540    -6.5450 hn         1 GUC       0.420300
     47 H15         14.9970    42.9840    -7.6040 ha         1 GUC       0.152000
     48 H16         15.1670    44.3530    -9.6540 h4         1 GUC       0.030100
     49 H17         15.0060    38.5780   -10.0090 hc         1 GUC       0.078700
     50 H18         16.4880    38.8460   -10.8920 hc         1 GUC       0.078700
@<TRIPOS>BOND
     1     1     2 1   
     2     1    33 1   
     3     1    34 1   
     4     1    35 1   
     5     2     3 ar  
     6     2     6 ar  
     7     3     4 ar  
     8     3    36 1   
     9     4     5 ar  
    10     4    20 1   
    11     5     7 ar  
    12     5    37 1   
    13     6     7 ar  
    14     6    10 1   
    15     8    10 1   
    16     8    11 1   
    17     8    38 1   
    18     9    28 ar  
    19     9    29 ar  
    20    10    21 2   
    21    11    12 ar  
    22    11    16 ar  
    23    12    13 ar  
    24    12    39 1   
    25    13    14 ar  
    26    13    40 1   
    27    14    15 ar  
    28    14    22 1   
    29    15    16 ar  
    30    15    17 1   
    31    16    41 1   
    32    17    18 1   
    33    17    23 1   
    34    17    32 1   
    35    18    42 1   
    36    18    43 1   
    37    18    44 1   
    38    19    20 3   
    39    23    24 2   
    40    24    25 1   
    41    24    26 1   
    42    25    45 1   
    43    25    46 1   
    44    26    27 ar  
    45    26    31 ar  
    46    27    28 ar  
    47    27    47 1   
    48    28    48 1   
    49    29    30 1   
    50    29    31 ar  
    51    31    32 1   
    52    32    49 1   
    53    32    50 1   
@<TRIPOS>SUBSTRUCTURE
     1 GUC         1 TEMP              0 ****  ****    0 ROOT
