@<TRIPOS>MOLECULE
GUC
   50    53     1     0     0
SMALL
No Charge or Current Charge


@<TRIPOS>ATOM
      1 C1          23.6470    43.1170    -4.1810 c3         1 GUC      -0.045800
      2 C2          22.2650    42.8820    -3.5690 ca         1 GUC      -0.056300
      3 C3          22.0310    43.3810    -2.2700 ca         1 GUC      -0.058000
      4 C4          20.7760    43.1860    -1.6720 ca         1 GUC      -0.046000
      5 C5          19.7900    42.4990    -2.3870 ca         1 GUC       0.376900
      6 C6          21.2080    42.1880    -4.2420 ca         1 GUC       0.306500
      7 N1          19.9910    42.0120    -3.6340 nb         1 GUC      -0.688000
      8 N2          20.2130    40.9640    -6.1280 ns         1 GUC      -0.125000
      9 N3          15.4340    43.0180   -10.7280 nb         1 GUC      -0.690000
     10 C7          21.3600    41.6050    -5.6640 c          1 GUC       0.514600
     11 C8          19.9020    40.2880    -7.3430 ca         1 GUC      -0.034000
     12 C9          20.8390    40.0570    -8.3680 ca         1 GUC      -0.107000
     13 C10         20.4500    39.3710    -9.5270 ca         1 GUC      -0.128000
     14 C11         19.1320    38.9160    -9.6810 ca         1 GUC       0.147000
     15 C12         18.1560    39.1400    -8.6740 ca         1 GUC      -0.093300
     16 C13         18.5810    39.8240    -7.5020 ca         1 GUC      -0.128000
     17 C14         16.6770    38.6420    -8.8430 c6         1 GUC       0.222500
     18 C15         16.6600    37.0870    -8.9430 c3         1 GUC      -0.071100
     19 N6          20.2780    44.0780     0.7180 n1         1 GUC      -0.428000
     20 C23         20.4960    43.6760    -0.3560 cg         1 GUC       0.318000
     21 O           22.3840    41.6920    -6.3380 o          1 GUC      -0.582100
     22 F1          18.8370    38.2480   -10.8180 f          1 GUC      -0.183000
     23 N5          15.8480    38.9450    -7.6450 n2         1 GUC      -0.683900
     24 C22         15.3500    40.1190    -7.4910 ce         1 GUC       0.674800
     25 N4          14.6900    40.4160    -6.3460 nv         1 GUC      -1.028200
     26 C18         15.3440    41.1460    -8.5820 ca         1 GUC      -0.136900
     27 C19         15.0740    42.5190    -8.3790 ca         1 GUC      -0.155000
     28 C20         15.1270    43.4060    -9.4700 ca         1 GUC       0.361900
     29 C21         15.7080    41.7090   -10.9160 ca         1 GUC       0.579200
     30 F2          16.0140    41.3670   -12.1870 f          1 GUC      -0.221200
     31 C17         15.6860    40.7470    -9.8850 ca         1 GUC      -0.134300
     32 C16         16.0000    39.2670   -10.1100 c6         1 GUC      -0.048100
     33 H1          23.5800    43.7080    -5.1020 hc         1 GUC       0.060700
     34 H2          24.3100    43.6630    -3.4990 hc         1 GUC       0.060700
     35 H3          24.1450    42.1680    -4.4160 hc         1 GUC       0.060700
     36 H4          22.8140    43.9130    -1.7310 ha         1 GUC       0.136000
     37 H5          18.8030    42.3280    -1.9570 h4         1 GUC       0.037100
     38 H6          19.4510    40.9870    -5.4610 hn         1 GUC       0.186000
     39 H7          21.8690    40.3870    -8.2870 ha         1 GUC       0.151000
     40 H8          21.1760    39.1850   -10.3140 ha         1 GUC       0.134000
     41 H9          17.8900    40.0060    -6.6850 ha         1 GUC       0.131000
     42 H10         17.1770    36.6310    -8.0900 hc         1 GUC       0.047033
     43 H11         15.6340    36.6980    -8.9530 hc         1 GUC       0.047033
     44 H12         17.1440    36.7210    -9.8540 hc         1 GUC       0.047033
     45 H13         14.4780    39.6010    -5.7840 hn         1 GUC       0.475500
     46 H14         13.9430    41.0930    -6.4340 hn         1 GUC       0.475500
     47 H15         14.8360    42.9110    -7.3940 ha         1 GUC       0.134000
     48 H16         14.9190    44.4670    -9.3290 h4         1 GUC       0.030100
     49 H17         15.0570    38.7430   -10.3140 hc         1 GUC       0.078700
     50 H18         16.6100    39.1300   -11.0090 hc         1 GUC       0.078700
@<TRIPOS>BOND
     1     1     2 1   
     2     1    33 1   
     3     1    34 1   
     4     1    35 1   
     5     2     3 ar  
     6     2     6 ar  
     7     3     4 ar  
     8     3    36 1   
     9     4     5 ar  
    10     4    20 1   
    11     5     7 ar  
    12     5    37 1   
    13     6     7 ar  
    14     6    10 1   
    15     8    10 1   
    16     8    11 1   
    17     8    38 1   
    18     9    28 ar  
    19     9    29 ar  
    20    10    21 2   
    21    11    12 ar  
    22    11    16 ar  
    23    12    13 ar  
    24    12    39 1   
    25    13    14 ar  
    26    13    40 1   
    27    14    15 ar  
    28    14    22 1   
    29    15    16 ar  
    30    15    17 1   
    31    16    41 1   
    32    17    18 1   
    33    17    23 1   
    34    17    32 1   
    35    18    42 1   
    36    18    43 1   
    37    18    44 1   
    38    19    20 3   
    39    23    24 2   
    40    24    25 1   
    41    24    26 1   
    42    25    45 1   
    43    25    46 1   
    44    26    27 ar  
    45    26    31 ar  
    46    27    28 ar  
    47    27    47 1   
    48    28    48 1   
    49    29    30 1   
    50    29    31 ar  
    51    31    32 1   
    52    32    49 1   
    53    32    50 1   
@<TRIPOS>SUBSTRUCTURE
     1 GUC         1 TEMP              0 ****  ****    0 ROOT
