@<TRIPOS>MOLECULE
GUE
   53    56     1     0     0
SMALL
No Charge or Current Charge


@<TRIPOS>ATOM
      1 N1          -7.7260     0.1800     0.5010 na         1 GUE      -0.805200
      2 C2          -7.7520     0.9680     1.5770 cc         1 GUE       0.906100
      3 N3          -6.6820     1.3720     2.1500 nd         1 GUE      -0.740100
      4 C4          -5.4390     1.0340     1.6640 c          1 GUE       0.756700
      5 C6          -4.2360    -0.7800    -1.4530 c5         1 GUE       0.005300
      6 C1           2.2070    -1.0350    -0.1080 ca         1 GUE      -0.062600
      7 C10          1.5160     0.1010     0.3770 ca         1 GUE      -0.054500
      8 C3           0.1270     0.2250     0.1980 ca         1 GUE      -0.129000
      9 C12         -0.6120    -0.7760    -0.4640 ca         1 GUE      -0.081200
     10 C5           0.0760    -1.9040    -0.9530 ca         1 GUE      -0.129000
     11 O4          -4.4510     1.4560     2.2440 o          1 GUE      -0.558100
     12 C4A         -5.3950     0.1870     0.4660 cc         1 GUE      -0.313300
     13 N5          -4.1610    -0.1860    -0.0950 nh         1 GUE      -0.175600
     14 C7          -5.4600    -1.7040    -1.6970 c6         1 GUE       0.227800
     15 N8          -6.6660    -1.0300    -1.1720 nu         1 GUE      -0.846200
     16 C8A         -6.5760    -0.2300    -0.0880 cd         1 GUE       0.414000
     17 N2          -8.9180     1.3030     2.0440 nv         1 GUE      -1.053200
     18 C9          -2.8430    -1.4870    -1.5330 c5         1 GUE       0.037600
     19 N10         -2.0130    -0.6370    -0.6420 nh         1 GUE      -0.143600
     20 C13          1.4640    -2.0330    -0.7760 ca         1 GUE      -0.054500
     21 O11          4.2930    -2.1950    -0.3780 o          1 GUE      -0.619100
     22 N            4.3780    -0.2130     0.7420 ns         1 GUE      -0.394900
     23 CA           5.8420    -0.1630     0.9810 c3         1 GUE      -0.057300
     24 C            6.1240     0.3100     2.4380 c          1 GUE       0.719000
     25 OX1          6.8460    -0.3830     3.1400 o          1 GUE      -0.729500
     26 OX2          5.5380     1.3020     2.8520 o          1 GUE      -0.729500
     27 CB           6.5750     0.7340    -0.0530 c3         1 GUE      -0.057400
     28 CG           6.4640     0.2530    -1.5240 c3         1 GUE      -0.203400
     29 CD           7.3170     1.1510    -2.4400 c          1 GUE       0.713000
     30 OE1          6.8000     2.1520    -2.9120 o          1 GUE      -0.752000
     31 OE2          8.4890     0.8530    -2.6110 o          1 GUE      -0.752000
     32 C14         -2.8370     0.0360     0.2450 c2         1 GUE       0.417700
     33 H1          -4.2780     0.0320    -2.1910 h1         1 GUE       0.103700
     34 H2           2.0390     0.9030     0.8910 ha         1 GUE       0.159500
     35 H3          -0.3670     1.1190     0.5740 ha         1 GUE       0.109500
     36 H4          -0.4560    -2.6990    -1.4710 ha         1 GUE       0.109500
     37 H7          -5.5560    -1.9240    -2.7710 h1         1 GUE       0.076200
     38 H8          -5.3090    -2.6600    -1.1730 h1         1 GUE       0.076200
     39 H9          -7.5860    -1.4130    -1.3890 hn         1 GUE       0.513000
     40 H10         -9.5930     1.5490     1.3340 hn         1 GUE       0.517000
     41 H11         -8.8400     1.9910     2.7800 hn         1 GUE       0.517000
     42 H12         -2.9020    -2.5090    -1.1330 h1         1 GUE       0.098700
     43 H13         -2.4510    -1.5330    -2.5580 h1         1 GUE       0.098700
     44 H14          1.9640    -2.9180    -1.1630 ha         1 GUE       0.159500
     45 H15          3.8230     0.5490     1.1080 hn         1 GUE       0.298500
     46 H16          6.2440    -1.1810     0.8990 h1         1 GUE       0.064700
     47 H18          6.1920     1.7600     0.0230 hc         1 GUE       0.057700
     48 H19          7.6370     0.7780     0.2220 hc         1 GUE       0.057700
     49 H20          6.8440    -0.7760    -1.5310 hc         1 GUE       0.005200
     50 H21          5.4030     0.3340    -1.7920 hc         1 GUE       0.005200
     51 H23         -2.5470     0.1280     1.2920 h5         1 GUE       0.134800
     52 H25         -8.6110    -0.1300     0.1450 hn         1 GUE       0.506000
     53 C11          3.7060    -1.2130     0.0610 c          1 GUE       0.578700
@<TRIPOS>BOND
     1     1     2 1   
     2     1    16 1   
     3     1    52 1   
     4     2     3 2   
     5     2    17 1   
     6     3     4 1   
     7     4    11 2   
     8     4    12 1   
     9     5    13 1   
    10     5    14 1   
    11     5    18 1   
    12     5    33 1   
    13     6     7 ar  
    14     6    20 ar  
    15     6    53 1   
    16     7     8 ar  
    17     7    34 1   
    18     8     9 ar  
    19     8    35 1   
    20     9    10 ar  
    21     9    19 1   
    22    10    20 ar  
    23    10    36 1   
    24    12    13 1   
    25    12    16 2   
    26    13    32 2   
    27    14    15 1   
    28    14    37 1   
    29    14    38 1   
    30    15    16 1   
    31    15    39 1   
    32    17    40 1   
    33    17    41 1   
    34    18    19 1   
    35    18    42 1   
    36    18    43 1   
    37    19    32 1   
    38    20    44 1   
    39    21    53 2   
    40    22    23 1   
    41    22    45 1   
    42    22    53 1   
    43    23    24 1   
    44    23    27 1   
    45    23    46 1   
    46    24    25 1   
    47    24    26 1   
    48    27    28 1   
    49    27    47 1   
    50    27    48 1   
    51    28    29 1   
    52    28    49 1   
    53    28    50 1   
    54    29    30 1   
    55    29    31 1   
    56    32    51 1   
@<TRIPOS>SUBSTRUCTURE
     1 GUE         1 TEMP              0 ****  ****    0 ROOT
