@<TRIPOS>MOLECULE
GUE
   53    56     1     0     0
SMALL
abcg2


@<TRIPOS>ATOM
      1 N1          -7.4580     0.5760     0.4290 na         1 GUE      -0.805200
      2 C2          -7.3320     1.9080     0.7110 cc         1 GUE       0.906100
      3 N3          -6.1880     2.5270     0.7370 nd         1 GUE      -0.740100
      4 C4          -5.0310     1.8510     0.4680 c          1 GUE       0.756700
      5 C6          -4.2710    -1.5580    -0.9640 c5         1 GUE       0.005300
      6 C1           2.1590    -1.3900    -0.4330 ca         1 GUE      -0.062600
      7 C10          1.5190    -0.1550    -0.3510 ca         1 GUE      -0.054500
      8 C3           0.1390    -0.0630    -0.3640 ca         1 GUE      -0.129000
      9 C12         -0.6300    -1.2220    -0.4370 ca         1 GUE      -0.081200
     10 C5          -0.0050    -2.4620    -0.5280 ca         1 GUE      -0.129000
     11 O4          -3.9410     2.4250     0.4770 o          1 GUE      -0.558100
     12 C4A         -5.1370     0.4470     0.1750 cc         1 GUE      -0.313300
     13 N5          -4.0330    -0.3280    -0.1950 nh         1 GUE      -0.175600
     14 C7          -5.3750    -2.3420    -0.2780 c6         1 GUE       0.227800
     15 N8          -6.5220    -1.4790    -0.1160 nu         1 GUE      -0.846200
     16 C8A         -6.3610    -0.1820     0.1620 cd         1 GUE       0.414000
     17 N2          -8.4620     2.5620     0.9850 nv         1 GUE      -1.053200
     18 C9          -2.8920    -2.2210    -0.9650 c5         1 GUE       0.037600
     19 N10         -2.0270    -1.1530    -0.4500 nh         1 GUE      -0.143600
     20 C13          1.3770    -2.5360    -0.5370 ca         1 GUE      -0.054500
     21 O11          4.1590    -2.5220    -0.9990 o          1 GUE      -0.619100
     22 N            4.3580    -0.5300     0.0420 ns         1 GUE      -0.394900
     23 CA           5.8000    -0.5720     0.1420 c3         1 GUE      -0.057300
     24 C            6.2900    -1.5220     1.2650 c          1 GUE       0.719000
     25 OX1          7.5090    -1.7840     1.2360 o          1 GUE      -0.729500
     26 OX2          5.4540    -1.9150     2.0980 o          1 GUE      -0.729500
     27 CB           6.3410     0.8430     0.3500 c3         1 GUE      -0.057400
     28 CG           6.0110     1.7880    -0.7940 c3         1 GUE      -0.203400
     29 CD           6.5930     3.2080    -0.6820 c          1 GUE       0.713000
     30 OE1          6.2410     4.0120    -1.5710 o          1 GUE      -0.752000
     31 OE2          7.3670     3.4500     0.2660 o          1 GUE      -0.752000
     32 C14         -2.7620    -0.1590     0.0270 c2         1 GUE       0.417700
     33 H1          -4.5850    -1.2710    -1.9700 h1         1 GUE       0.103700
     34 H2           2.0870     0.7660    -0.3220 ha         1 GUE       0.159500
     35 H3          -0.3210     0.9160    -0.3480 ha         1 GUE       0.109500
     36 H4          -0.5830    -3.3740    -0.5890 ha         1 GUE       0.109500
     37 H7          -5.6600    -3.1950    -0.8910 h1         1 GUE       0.076200
     38 H8          -5.0230    -2.7190     0.6860 h1         1 GUE       0.076200
     39 H9          -7.4440    -1.8850    -0.1270 hn         1 GUE       0.513000
     40 H10         -9.3700     2.1420     0.8790 hn         1 GUE       0.517000
     41 H11         -8.4210     3.5580     1.1070 hn         1 GUE       0.517000
     42 H12         -2.8510    -3.0890    -0.3050 h1         1 GUE       0.098700
     43 H13         -2.5780    -2.5170    -1.9630 h1         1 GUE       0.098700
     44 H14          1.8490    -3.5050    -0.6190 ha         1 GUE       0.159500
     45 H15          3.8840     0.1290     0.6390 hn         1 GUE       0.298500
     46 H16          6.1890    -0.9490    -0.8090 h1         1 GUE       0.064700
     47 H18          5.9580     1.2440     1.2950 hc         1 GUE       0.057700
     48 H19          7.4220     0.7690     0.4690 hc         1 GUE       0.057700
     49 H20          6.3650     1.3520    -1.7370 hc         1 GUE       0.005200
     50 H21          4.9270     1.8750    -0.9170 hc         1 GUE       0.005200
     51 H23         -2.3590     0.6900     0.5540 h5         1 GUE       0.134800
     52 H25         -8.3720     0.1440     0.4200 hn         1 GUE       0.506000
     53 C11          3.6470    -1.5370    -0.4770 c          1 GUE       0.578700
@<TRIPOS>BOND
     1     1     2 1   
     2     1    16 1   
     3     1    52 1   
     4     2     3 2   
     5     2    17 1   
     6     3     4 1   
     7     4    11 2   
     8     4    12 1   
     9     5    13 1   
    10     5    14 1   
    11     5    18 1   
    12     5    33 1   
    13     6     7 ar  
    14     6    20 ar  
    15     6    53 1   
    16     7     8 ar  
    17     7    34 1   
    18     8     9 ar  
    19     8    35 1   
    20     9    10 ar  
    21     9    19 1   
    22    10    20 ar  
    23    10    36 1   
    24    12    13 1   
    25    12    16 2   
    26    13    32 2   
    27    14    15 1   
    28    14    37 1   
    29    14    38 1   
    30    15    16 1   
    31    15    39 1   
    32    17    40 1   
    33    17    41 1   
    34    18    19 1   
    35    18    42 1   
    36    18    43 1   
    37    19    32 1   
    38    20    44 1   
    39    21    53 2   
    40    22    23 1   
    41    22    45 1   
    42    22    53 1   
    43    23    24 1   
    44    23    27 1   
    45    23    46 1   
    46    24    25 1   
    47    24    26 1   
    48    27    28 1   
    49    27    47 1   
    50    27    48 1   
    51    28    29 1   
    52    28    49 1   
    53    28    50 1   
    54    29    30 1   
    55    29    31 1   
    56    32    51 1   
@<TRIPOS>SUBSTRUCTURE
     1 GUE         1 TEMP              0 ****  ****    0 ROOT
