@<TRIPOS>MOLECULE
GUF
   21    21     1     0     0
SMALL
No Charge or Current Charge


@<TRIPOS>ATOM
      1 O6B         46.5940     1.5700    24.8780 o          1 GUF      -0.706000
      2 C6          46.5680     2.5540    24.1450 c          1 GUF       0.746000
      3 O6A         46.4240     2.3930    22.9380 o          1 GUF      -0.706000
      4 C5          45.9130     3.8520    24.7370 c6         1 GUF       0.032300
      5 O5          44.9820     3.5910    25.8380 os         1 GUF      -0.447000
      6 C4          47.0140     4.8400    25.2240 c6         1 GUF       0.154300
      7 O4          47.9360     5.1800    24.1780 oh         1 GUF      -0.691000
      8 C3          46.3580     6.1430    25.7670 c6         1 GUF       0.094300
      9 O3          47.3680     7.0460    26.2630 oh         1 GUF      -0.664000
     10 C2          45.3120     5.7950    26.8630 c6         1 GUF       0.132300
     11 F2          44.6320     6.9850    27.2260 f          1 GUF      -0.287000
     12 C1          44.2900     4.7520    26.3120 c6         1 GUF       0.369300
     13 O1          43.4240     4.2720    27.3260 oh         1 GUF      -0.648000
     14 H5          45.3480     4.3270    23.9210 h1         1 GUF       0.029700
     15 H4          47.5560     4.3570    26.0520 h1         1 GUF       0.071700
     16 HO4         48.3490     6.0240    24.4800 ho         1 GUF       0.490000
     17 H3          45.8180     6.6220    24.9350 h1         1 GUF       0.040700
     18 HO3         46.8920     7.7990    26.6790 ho         1 GUF       0.437000
     19 H2          45.8080     5.3970    27.7580 h1         1 GUF       0.086700
     20 H1          43.7020     5.1890    25.4920 h2         1 GUF       0.011700
     21 HO1         43.3080     3.3250    27.0990 ho         1 GUF       0.452000
@<TRIPOS>BOND
     1     1     2 1   
     2     2     3 1   
     3     2     4 1   
     4     4     5 1   
     5     4     6 1   
     6     4    14 1   
     7     5    12 1   
     8     6     7 1   
     9     6     8 1   
    10     6    15 1   
    11     7    16 1   
    12     8     9 1   
    13     8    10 1   
    14     8    17 1   
    15     9    18 1   
    16    10    11 1   
    17    10    12 1   
    18    10    19 1   
    19    12    13 1   
    20    12    20 1   
    21    13    21 1   
@<TRIPOS>SUBSTRUCTURE
     1 GUF         1 TEMP              0 ****  ****    0 ROOT
