@<TRIPOS>MOLECULE
GUF
   21    21     1     0     0
SMALL
bcc


@<TRIPOS>ATOM
      1 O6B         47.1690     1.9110    24.9780 o          1 GUF      -0.811300
      2 C6          46.5260     2.6020    24.1670 c          1 GUF       0.956600
      3 O6A         46.3290     2.3800    22.9590 o          1 GUF      -0.811300
      4 C5          45.9050     3.9000    24.7370 c6         1 GUF       0.009100
      5 O5          45.0780     3.5570    25.8360 os         1 GUF      -0.400600
      6 C4          46.9770     4.8700    25.2180 c6         1 GUF       0.131100
      7 O4          47.7880     5.2020    24.1200 oh         1 GUF      -0.568800
      8 C3          46.3150     6.1040    25.8180 c6         1 GUF       0.071100
      9 O3          47.3260     6.9310    26.3430 oh         1 GUF      -0.601800
     10 C2          45.3130     5.6840    26.8790 c6         1 GUF       0.113600
     11 F2          44.5920     6.8080    27.2820 f          1 GUF      -0.268300
     12 C1          44.3440     4.6470    26.3310 c6         1 GUF       0.322900
     13 O1          43.5310     4.2140    27.3550 oh         1 GUF      -0.585800
     14 H5          45.3030     4.3950    23.9590 h1         1 GUF       0.029700
     15 H4          47.5590     4.3660    26.0060 h1         1 GUF       0.071700
     16 HO4         48.4570     5.8260    24.4190 ho         1 GUF       0.391000
     17 H3          45.7640     6.6150    25.0130 h1         1 GUF       0.040700
     18 HO3         46.9840     7.8250    26.4370 ho         1 GUF       0.398000
     19 H2          45.8300     5.2840    27.7580 h1         1 GUF       0.086700
     20 H1          43.7590     5.1000    25.5100 h2         1 GUF       0.011700
     21 HO1         42.7470     3.7920    26.9870 ho         1 GUF       0.413000
@<TRIPOS>BOND
     1     1     2 1   
     2     2     3 1   
     3     2     4 1   
     4     4     5 1   
     5     4     6 1   
     6     4    14 1   
     7     5    12 1   
     8     6     7 1   
     9     6     8 1   
    10     6    15 1   
    11     7    16 1   
    12     8     9 1   
    13     8    10 1   
    14     8    17 1   
    15     9    18 1   
    16    10    11 1   
    17    10    12 1   
    18    10    19 1   
    19    12    13 1   
    20    12    20 1   
    21    13    21 1   
@<TRIPOS>SUBSTRUCTURE
     1 GUF         1 TEMP              0 ****  ****    0 ROOT
