@<TRIPOS>MOLECULE
GUG
   30    31     1     0     0
SMALL
No Charge or Current Charge


@<TRIPOS>ATOM
      1 N1          -2.4320     0.2830     0.0920 ns         1 GUG      -0.485900
      2 C4          -1.7570    -0.9250     0.1000 c          1 GUG       0.505600
      3 C5          -0.2250    -0.8220     0.0630 ca         1 GUG       0.313500
      4 C6           0.5550    -1.9970     0.0670 ca         1 GUG      -0.118000
      5 C7           1.9550    -1.9040     0.0340 ca         1 GUG      -0.070000
      6 C8           2.5420    -0.6290    -0.0040 ca         1 GUG      -0.070000
      7 C10          4.5270     0.7810    -0.0760 ca         1 GUG      -0.101000
      8 C13          1.7070     0.5170    -0.0060 ca         1 GUG       0.268000
      9 C1          -4.2640     1.7830     0.7680 c3         1 GUG      -0.107100
     10 C2          -3.8850     0.4460     0.1030 c3         1 GUG       0.112700
     11 C3          -4.4600     0.3210    -1.3220 c3         1 GUG      -0.107100
     12 O1          -2.3630    -1.9930     0.1360 o          1 GUG      -0.609100
     13 C9           3.9430    -0.4950    -0.0380 ca         1 GUG      -0.093000
     14 C11          3.7110     1.9240    -0.0790 ca         1 GUG      -0.102000
     15 C12          2.3110     1.7880    -0.0440 ca         1 GUG      -0.081000
     16 N2           0.3570     0.4170     0.0260 nb         1 GUG      -0.673000
     17 H1          -1.8430     1.1100     0.0620 hn         1 GUG       0.337500
     18 H2           0.0750    -2.9720     0.0970 ha         1 GUG       0.150000
     19 H3           2.5670    -2.8040     0.0370 ha         1 GUG       0.123000
     20 H4           5.6100     0.8850    -0.1020 ha         1 GUG       0.117000
     21 H5          -3.8600     2.6310     0.2020 hc         1 GUG       0.041367
     22 H6          -5.3540     1.8910     0.8210 hc         1 GUG       0.041367
     23 H7          -3.8690     1.8300     1.7900 hc         1 GUG       0.041367
     24 H8          -4.3150    -0.3610     0.7140 h1         1 GUG       0.078700
     25 H9          -4.2120    -0.6550    -1.7560 hc         1 GUG       0.041367
     26 H10         -5.5530     0.4160    -1.3060 hc         1 GUG       0.041367
     27 H11         -4.0560     1.1020    -1.9760 hc         1 GUG       0.041367
     28 H12          4.5800    -1.3780    -0.0360 ha         1 GUG       0.118000
     29 H13          4.1600     2.9140    -0.1070 ha         1 GUG       0.118000
     30 H14          1.6860     2.6770    -0.0470 ha         1 GUG       0.129000
@<TRIPOS>BOND
     1     1     2 1   
     2     1    10 1   
     3     1    17 1   
     4     2     3 1   
     5     2    12 2   
     6     3     4 ar  
     7     3    16 ar  
     8     4     5 ar  
     9     4    18 1   
    10     5     6 ar  
    11     5    19 1   
    12     6     8 ar  
    13     6    13 ar  
    14     7    13 ar  
    15     7    14 ar  
    16     7    20 1   
    17     8    15 ar  
    18     8    16 ar  
    19     9    10 1   
    20     9    21 1   
    21     9    22 1   
    22     9    23 1   
    23    10    11 1   
    24    10    24 1   
    25    11    25 1   
    26    11    26 1   
    27    11    27 1   
    28    13    28 1   
    29    14    15 ar  
    30    14    29 1   
    31    15    30 1   
@<TRIPOS>SUBSTRUCTURE
     1 GUG         1 TEMP              0 ****  ****    0 ROOT
