@<TRIPOS>MOLECULE
GUG
   30    31     1     0     0
SMALL
abcg2


@<TRIPOS>ATOM
      1 N1          -2.3680     0.2350     0.0610 ns         1 GUG      -0.485900
      2 C4          -1.7390    -0.9370     0.1590 c          1 GUG       0.505600
      3 C5          -0.2340    -0.8390     0.1350 ca         1 GUG       0.313500
      4 C6           0.5320    -2.0130     0.2890 ca         1 GUG      -0.118000
      5 C7           1.8930    -1.9100     0.2560 ca         1 GUG      -0.070000
      6 C8           2.4930    -0.6460     0.0680 ca         1 GUG      -0.070000
      7 C10          4.4090     0.7970    -0.1670 ca         1 GUG      -0.101000
      8 C13          1.6340     0.4720    -0.0750 ca         1 GUG       0.268000
      9 C1          -4.2260     1.5430     0.9260 c3         1 GUG      -0.107100
     10 C2          -3.8080     0.4040     0.0070 c3         1 GUG       0.112700
     11 C3          -4.2690     0.6380    -1.4270 c3         1 GUG      -0.107100
     12 O1          -2.2890    -2.0260     0.2640 o          1 GUG      -0.609100
     13 C9           3.8920    -0.4560     0.0180 ca         1 GUG      -0.093000
     14 C11          3.5530     1.9110    -0.3100 ca         1 GUG      -0.102000
     15 C12          2.1950     1.7560    -0.2660 ca         1 GUG      -0.081000
     16 N2           0.2910     0.3460    -0.0370 nb         1 GUG      -0.673000
     17 H1          -1.7830     1.0520    -0.0530 hn         1 GUG       0.337500
     18 H2           0.0450    -2.9670     0.4320 ha         1 GUG       0.150000
     19 H3           2.5180    -2.7860     0.3740 ha         1 GUG       0.123000
     20 H4           5.4810     0.9410    -0.2050 ha         1 GUG       0.117000
     21 H5          -3.7860     2.4900     0.6050 hc         1 GUG       0.041367
     22 H6          -5.3100     1.6610     0.9130 hc         1 GUG       0.041367
     23 H7          -3.9180     1.3560     1.9550 hc         1 GUG       0.041367
     24 H8          -4.2510    -0.5230     0.3730 h1         1 GUG       0.078700
     25 H9          -3.9860    -0.1940    -2.0730 hc         1 GUG       0.041367
     26 H10         -5.3540     0.7430    -1.4690 hc         1 GUG       0.041367
     27 H11         -3.8290     1.5500    -1.8340 hc         1 GUG       0.041367
     28 H12          4.5450    -1.3120     0.1270 ha         1 GUG       0.118000
     29 H13          3.9790     2.8940    -0.4580 ha         1 GUG       0.118000
     30 H14          1.5280     2.6020    -0.3750 ha         1 GUG       0.129000
@<TRIPOS>BOND
     1     1     2 1   
     2     1    10 1   
     3     1    17 1   
     4     2     3 1   
     5     2    12 2   
     6     3     4 ar  
     7     3    16 ar  
     8     4     5 ar  
     9     4    18 1   
    10     5     6 ar  
    11     5    19 1   
    12     6     8 ar  
    13     6    13 ar  
    14     7    13 ar  
    15     7    14 ar  
    16     7    20 1   
    17     8    15 ar  
    18     8    16 ar  
    19     9    10 1   
    20     9    21 1   
    21     9    22 1   
    22     9    23 1   
    23    10    11 1   
    24    10    24 1   
    25    11    25 1   
    26    11    26 1   
    27    11    27 1   
    28    13    28 1   
    29    14    15 ar  
    30    14    29 1   
    31    15    30 1   
@<TRIPOS>SUBSTRUCTURE
     1 GUG         1 TEMP              0 ****  ****    0 ROOT
