@<TRIPOS>MOLECULE
GUI
   82    86     1     0     0
SMALL
No Charge or Current Charge


@<TRIPOS>ATOM
      1 C1          -4.1490     2.3160     1.1370 ca         1 GUI      -0.125000
      2 C2          -4.2700     0.9210     1.0040 ca         1 GUI       0.439900
      3 N3          -3.1960     0.1330     0.8470 nb         1 GUI      -0.321000
      4 C4          -2.0020     0.7390     0.8560 ca         1 GUI       0.427900
      5 N5          -1.7690     2.0580     0.9760 nb         1 GUI      -0.256000
      6 C6          -2.8500     2.8490     1.1200 ca         1 GUI       0.186900
      7 N7          -0.9330    -0.1210     0.6670 nu         1 GUI      -0.911900
      8 C8           0.4720    -0.0050     0.6560 ca         1 GUI       0.246000
      9 C9           1.1510     1.0570     1.2900 ca         1 GUI      -0.062000
     10 C10          2.5550     1.1270     1.2620 ca         1 GUI      -0.184000
     11 C11          3.3100     0.1370     0.6100 ca         1 GUI       0.309000
     12 C12          2.6460    -0.9330    -0.0080 ca         1 GUI      -0.213000
     13 C13          1.2360    -1.0160     0.0140 ca         1 GUI       0.126100
     14 O14          0.5600    -2.0720    -0.5840 os         1 GUI      -0.358100
     15 C15          1.2430    -3.1440    -1.2600 c3         1 GUI       0.152900
     16 N16          4.7200     0.1930     0.5740 nh         1 GUI      -0.780400
     17 C17          5.4370     1.4920     0.5920 c6         1 GUI       0.195800
     18 C18          6.7940     1.3890    -0.1410 c6         1 GUI      -0.081400
     19 C19          7.6960     0.2540     0.4360 c6         1 GUI       0.187500
     20 C20          6.8700    -1.0700     0.4260 c6         1 GUI      -0.081400
     21 C21          5.5150    -0.9180     1.1520 c6         1 GUI       0.195800
     22 N22          8.9990     0.1220    -0.3130 n3         1 GUI      -0.715600
     23 C23          9.8690    -0.9840     0.2230 c6         1 GUI       0.162800
     24 C24         11.2380    -1.1070    -0.5200 c6         1 GUI       0.161300
     25 N25         12.0090     0.1700    -0.5090 n3         1 GUI      -0.714600
     26 C26         11.1650     1.2650    -1.0670 c6         1 GUI       0.161300
     27 C27          9.7950     1.3990    -0.3270 c6         1 GUI       0.162800
     28 C28         13.3180     0.0540    -1.1850 c3         1 GUI       0.153100
     29 N29         -5.5240     0.3220     0.9760 nu         1 GUI      -0.969900
     30 C30         -5.9740    -0.9950     0.9020 ca         1 GUI       0.398000
     31 C31         -7.1350    -1.3240     0.1750 ca         1 GUI      -0.299500
     32 C32         -7.5760    -2.6650     0.1240 ca         1 GUI      -0.003000
     33 C33         -6.8720    -3.6680     0.8070 ca         1 GUI      -0.149000
     34 C34         -5.7270    -3.3420     1.5460 ca         1 GUI      -0.041000
     35 C35         -5.2860    -2.0110     1.5930 ca         1 GUI      -0.134000
     36 S36         -8.0460    -0.0740    -0.7450 sy         1 GUI       1.016500
     37 C37         -6.9970     0.2420    -2.2110 c3         1 GUI      -0.246700
     38 C38         -6.7280    -1.0490    -3.0280 c3         1 GUI      -0.080100
     39 C39         -7.5830     1.3730    -3.0940 c3         1 GUI      -0.080100
     40 O40         -9.3060    -0.6580    -1.2240 o          1 GUI      -0.526500
     41 O41         -8.0460     1.1670     0.0430 o          1 GUI      -0.526500
     42 Cl          -5.5540     3.3730     1.3100 cl         1 GUI      -0.165000
     43 H6          -2.6710     3.9180     1.2160 h4         1 GUI       0.035100
     44 H29         -6.2760     1.0100     0.8820 hn         1 GUI       0.545000
     45 H7          -1.2420    -1.0410     0.3520 hn         1 GUI       0.523000
     46 H9           0.6030     1.8230     1.8270 ha         1 GUI       0.143000
     47 H10          3.0510     1.9500     1.7680 ha         1 GUI       0.118000
     48 H12          3.2430    -1.6870    -0.5090 ha         1 GUI       0.123000
     49 H151         1.8330    -2.7610    -2.1030 h1         1 GUI       0.042033
     50 H152         1.9140    -3.6750    -0.5720 h1         1 GUI       0.042033
     51 H153         0.5190    -3.8670    -1.6540 h1         1 GUI       0.042033
     52 H171         4.8340     2.2680     0.0990 h1         1 GUI       0.037200
     53 H172         5.6070     1.8140     1.6310 h1         1 GUI       0.037200
     54 H211         5.6960    -0.7290     2.2210 h1         1 GUI       0.037200
     55 H212         4.9680    -1.8690     1.0800 h1         1 GUI       0.037200
     56 H181         6.6190     1.2180    -1.2110 hc         1 GUI       0.055450
     57 H182         7.2820     2.3660    -0.0510 hc         1 GUI       0.055450
     58 H19          7.9120     0.5030     1.4860 h1         1 GUI       0.019700
     59 H201         6.6960    -1.3940    -0.6090 hc         1 GUI       0.055450
     60 H202         7.4130    -1.8790     0.9270 hc         1 GUI       0.055450
     61 H231        10.0650    -0.8240     1.2940 h1         1 GUI       0.037700
     62 H232         9.3730    -1.9580     0.1260 h1         1 GUI       0.037700
     63 H271         9.2440     2.2020    -0.8340 h1         1 GUI       0.037700
     64 H272         9.9860     1.7360     0.7030 h1         1 GUI       0.037700
     65 H241        11.8240    -1.9080    -0.0440 h1         1 GUI       0.037200
     66 H242        11.0460    -1.4240    -1.5560 h1         1 GUI       0.037200
     67 H261        11.6960     2.2260    -0.9970 h1         1 GUI       0.037200
     68 H262        10.9680     1.0850    -2.1340 h1         1 GUI       0.037200
     69 H281        13.1910    -0.1950    -2.2480 h1         1 GUI       0.030700
     70 H282        13.8740     0.9990    -1.1170 h1         1 GUI       0.030700
     71 H283        13.9270    -0.7310    -0.7180 h1         1 GUI       0.030700
     72 H35         -4.4110    -1.7680     2.1860 ha         1 GUI       0.142000
     73 H32         -8.4620    -2.9410    -0.4470 ha         1 GUI       0.144000
     74 H33         -7.2170    -4.6990     0.7650 ha         1 GUI       0.123000
     75 H34         -5.1850    -4.1160     2.0840 ha         1 GUI       0.118000
     76 H37         -6.0390     0.5910    -1.8050 h1         1 GUI       0.095700
     77 H381        -6.0730    -0.8350    -3.8810 hc         1 GUI       0.054200
     78 H382        -6.2320    -1.8110    -2.4150 hc         1 GUI       0.054200
     79 H383        -7.6620    -1.4740    -3.4160 hc         1 GUI       0.054200
     80 H391        -7.7090     2.2970    -2.5160 hc         1 GUI       0.054200
     81 H392        -6.9130     1.5940    -3.9340 hc         1 GUI       0.054200
     82 H393        -8.5600     1.0880    -3.5030 hc         1 GUI       0.054200
@<TRIPOS>BOND
     1     1     2 ar  
     2     1     6 ar  
     3     1    42 1   
     4     2     3 ar  
     5     2    29 1   
     6     3     4 ar  
     7     4     5 ar  
     8     4     7 1   
     9     5     6 ar  
    10     6    43 1   
    11     7     8 1   
    12     7    45 1   
    13     8     9 ar  
    14     8    13 ar  
    15     9    10 ar  
    16     9    46 1   
    17    10    11 ar  
    18    10    47 1   
    19    11    12 ar  
    20    11    16 1   
    21    12    13 ar  
    22    12    48 1   
    23    13    14 1   
    24    14    15 1   
    25    15    49 1   
    26    15    50 1   
    27    15    51 1   
    28    16    17 1   
    29    16    21 1   
    30    17    18 1   
    31    17    52 1   
    32    17    53 1   
    33    18    19 1   
    34    18    56 1   
    35    18    57 1   
    36    19    20 1   
    37    19    22 1   
    38    19    58 1   
    39    20    21 1   
    40    20    59 1   
    41    20    60 1   
    42    21    54 1   
    43    21    55 1   
    44    22    23 1   
    45    22    27 1   
    46    23    24 1   
    47    23    61 1   
    48    23    62 1   
    49    24    25 1   
    50    24    65 1   
    51    24    66 1   
    52    25    26 1   
    53    25    28 1   
    54    26    27 1   
    55    26    67 1   
    56    26    68 1   
    57    27    63 1   
    58    27    64 1   
    59    28    69 1   
    60    28    70 1   
    61    28    71 1   
    62    29    30 1   
    63    29    44 1   
    64    30    31 ar  
    65    30    35 ar  
    66    31    32 ar  
    67    31    36 1   
    68    32    33 ar  
    69    32    73 1   
    70    33    34 ar  
    71    33    74 1   
    72    34    35 ar  
    73    34    75 1   
    74    35    72 1   
    75    36    37 1   
    76    36    40 2   
    77    36    41 2   
    78    37    38 1   
    79    37    39 1   
    80    37    76 1   
    81    38    77 1   
    82    38    78 1   
    83    38    79 1   
    84    39    80 1   
    85    39    81 1   
    86    39    82 1   
@<TRIPOS>SUBSTRUCTURE
     1 GUI         1 TEMP              0 ****  ****    0 ROOT
