@<TRIPOS>MOLECULE
GUI
   82    86     1     0     0
SMALL
abcg2


@<TRIPOS>ATOM
      1 C1          -3.8930     2.3390     0.8000 ca         1 GUI      -0.125000
      2 C2          -4.1170     0.9460     0.8190 ca         1 GUI       0.439900
      3 N3          -3.0970     0.1170     0.7580 nb         1 GUI      -0.321000
      4 C4          -1.8620     0.6280     0.6970 ca         1 GUI       0.427900
      5 N5          -1.5580     1.9210     0.6780 nb         1 GUI      -0.256000
      6 C6          -2.5880     2.7580     0.7240 ca         1 GUI       0.186900
      7 N7          -0.8800    -0.3020     0.6480 nu         1 GUI      -0.911900
      8 C8           0.5050    -0.1360     0.5560 ca         1 GUI       0.246000
      9 C9           1.2090     0.9510     1.0460 ca         1 GUI      -0.062000
     10 C10          2.5950     1.0250     0.9490 ca         1 GUI      -0.184000
     11 C11          3.3270     0.0020     0.3520 ca         1 GUI       0.309000
     12 C12          2.6190    -1.1060    -0.1410 ca         1 GUI      -0.213000
     13 C13          1.2420    -1.1800    -0.0420 ca         1 GUI       0.126100
     14 O14          0.5080    -2.2150    -0.4990 os         1 GUI      -0.358100
     15 C15          1.1690    -3.3300    -1.0620 c3         1 GUI       0.152900
     16 N16          4.7140     0.0500     0.1900 nh         1 GUI      -0.780400
     17 C17          5.3820     1.2950     0.5040 c6         1 GUI       0.195800
     18 C18          6.7850     1.3370    -0.0820 c6         1 GUI      -0.081400
     19 C19          7.6450     0.1650     0.3890 c6         1 GUI       0.187500
     20 C20          6.8780    -1.1230     0.0910 c6         1 GUI      -0.081400
     21 C21          5.4730    -1.0970     0.6690 c6         1 GUI       0.195800
     22 N22          8.9630     0.1660    -0.2470 n3         1 GUI      -0.715600
     23 C23          9.7930    -0.9400     0.2050 c6         1 GUI       0.162800
     24 C24         11.1420    -0.9430    -0.4890 c6         1 GUI       0.161300
     25 N25         11.8480     0.3000    -0.2650 n3         1 GUI      -0.714600
     26 C26         11.0320     1.4010    -0.7260 c6         1 GUI       0.161300
     27 C27          9.6830     1.4120    -0.0320 c6         1 GUI       0.162800
     28 C28         13.1510     0.2950    -0.8870 c3         1 GUI       0.153100
     29 N29         -5.3860     0.4640     0.8740 nu         1 GUI      -0.969900
     30 C30         -5.7900    -0.8710     0.9040 ca         1 GUI       0.398000
     31 C31         -6.9790    -1.2560     0.2610 ca         1 GUI      -0.299500
     32 C32         -7.4320    -2.5680     0.3060 ca         1 GUI      -0.003000
     33 C33         -6.7020    -3.5290     0.9820 ca         1 GUI      -0.149000
     34 C34         -5.5260    -3.1610     1.6200 ca         1 GUI      -0.041000
     35 C35         -5.0750    -1.8520     1.5900 ca         1 GUI      -0.134000
     36 S36         -7.9680    -0.0800    -0.6330 sy         1 GUI       1.016500
     37 C37         -7.0190     0.3060    -2.1240 c3         1 GUI      -0.246700
     38 C38         -6.8360    -0.9420    -2.9700 c3         1 GUI      -0.080100
     39 C39         -7.7400     1.4250    -2.8630 c3         1 GUI      -0.080100
     40 O40         -9.2140    -0.7330    -1.0310 o          1 GUI      -0.526500
     41 O41         -8.0720     1.1390     0.1820 o          1 GUI      -0.526500
     42 CL          -5.1990     3.4670     0.8540 cl         1 GUI      -0.165000
     43 H6          -2.3610     3.8190     0.7000 h4         1 GUI       0.035100
     44 H29         -6.1310     1.1480     0.8560 hn         1 GUI       0.545000
     45 H7          -1.2200    -1.2500     0.6010 hn         1 GUI       0.523000
     46 H9           0.6780     1.7610     1.5210 ha         1 GUI       0.143000
     47 H10          3.0850     1.8910     1.3680 ha         1 GUI       0.118000
     48 H12          3.1610    -1.8950    -0.6430 ha         1 GUI       0.123000
     49 H151         1.7180    -3.0620    -1.9680 h1         1 GUI       0.042033
     50 H152         1.8610    -3.7920    -0.3530 h1         1 GUI       0.042033
     51 H153         0.3950    -4.0480    -1.3200 h1         1 GUI       0.042033
     52 H171         4.8110     2.1240     0.0840 h1         1 GUI       0.037200
     53 H172         5.4370     1.4630     1.5920 h1         1 GUI       0.037200
     54 H211         5.5290    -1.0870     1.7690 h1         1 GUI       0.037200
     55 H212         4.9700    -2.0210     0.3910 h1         1 GUI       0.037200
     56 H181         6.7300     1.3270    -1.1740 hc         1 GUI       0.055450
     57 H182         7.2160     2.2940     0.2130 hc         1 GUI       0.055450
     58 H19          7.7560     0.2490     1.4880 h1         1 GUI       0.019700
     59 H201         6.8280    -1.2670    -0.9930 hc         1 GUI       0.055450
     60 H202         7.3790    -1.9940     0.5120 hc         1 GUI       0.055450
     61 H231         9.9470    -0.9090     1.2980 h1         1 GUI       0.037700
     62 H232         9.3120    -1.8910    -0.0250 h1         1 GUI       0.037700
     63 H271         9.1170     2.2480    -0.4400 h1         1 GUI       0.037700
     64 H272         9.8320     1.6120     1.0440 h1         1 GUI       0.037700
     65 H241        11.7360    -1.7720    -0.0960 h1         1 GUI       0.037200
     66 H242        10.9920    -1.1350    -1.5670 h1         1 GUI       0.037200
     67 H261        11.5410     2.3440    -0.5110 h1         1 GUI       0.037200
     68 H262        10.8740     1.3610    -1.8190 h1         1 GUI       0.037200
     69 H281        13.1080     0.1810    -1.9820 h1         1 GUI       0.030700
     70 H282        13.6750     1.2270    -0.6690 h1         1 GUI       0.030700
     71 H283        13.7510    -0.5260    -0.4920 h1         1 GUI       0.030700
     72 H35         -4.1680    -1.5900     2.1110 ha         1 GUI       0.142000
     73 H32         -8.3520    -2.8410    -0.1920 ha         1 GUI       0.144000
     74 H33         -7.0510    -4.5510     1.0140 ha         1 GUI       0.123000
     75 H34         -4.9530    -3.8990     2.1660 ha         1 GUI       0.118000
     76 H37         -6.0520     0.6630    -1.7620 h1         1 GUI       0.095700
     77 H381        -6.2290    -0.6850    -3.8370 hc         1 GUI       0.054200
     78 H382        -6.3200    -1.7380    -2.4330 hc         1 GUI       0.054200
     79 H383        -7.7910    -1.3240    -3.3290 hc         1 GUI       0.054200
     80 H391        -7.8400     2.3240    -2.2570 hc         1 GUI       0.054200
     81 H392        -7.1600     1.6840    -3.7480 hc         1 GUI       0.054200
     82 H393        -8.7290     1.1110    -3.1960 hc         1 GUI       0.054200
@<TRIPOS>BOND
     1     1     2 ar  
     2     1     6 ar  
     3     1    42 1   
     4     2     3 ar  
     5     2    29 1   
     6     3     4 ar  
     7     4     5 ar  
     8     4     7 1   
     9     5     6 ar  
    10     6    43 1   
    11     7     8 1   
    12     7    45 1   
    13     8     9 ar  
    14     8    13 ar  
    15     9    10 ar  
    16     9    46 1   
    17    10    11 ar  
    18    10    47 1   
    19    11    12 ar  
    20    11    16 1   
    21    12    13 ar  
    22    12    48 1   
    23    13    14 1   
    24    14    15 1   
    25    15    49 1   
    26    15    50 1   
    27    15    51 1   
    28    16    17 1   
    29    16    21 1   
    30    17    18 1   
    31    17    52 1   
    32    17    53 1   
    33    18    19 1   
    34    18    56 1   
    35    18    57 1   
    36    19    20 1   
    37    19    22 1   
    38    19    58 1   
    39    20    21 1   
    40    20    59 1   
    41    20    60 1   
    42    21    54 1   
    43    21    55 1   
    44    22    23 1   
    45    22    27 1   
    46    23    24 1   
    47    23    61 1   
    48    23    62 1   
    49    24    25 1   
    50    24    65 1   
    51    24    66 1   
    52    25    26 1   
    53    25    28 1   
    54    26    27 1   
    55    26    67 1   
    56    26    68 1   
    57    27    63 1   
    58    27    64 1   
    59    28    69 1   
    60    28    70 1   
    61    28    71 1   
    62    29    30 1   
    63    29    44 1   
    64    30    31 ar  
    65    30    35 ar  
    66    31    32 ar  
    67    31    36 1   
    68    32    33 ar  
    69    32    73 1   
    70    33    34 ar  
    71    33    74 1   
    72    34    35 ar  
    73    34    75 1   
    74    35    72 1   
    75    36    37 1   
    76    36    40 2   
    77    36    41 2   
    78    37    38 1   
    79    37    39 1   
    80    37    76 1   
    81    38    77 1   
    82    38    78 1   
    83    38    79 1   
    84    39    80 1   
    85    39    81 1   
    86    39    82 1   
@<TRIPOS>SUBSTRUCTURE
     1 GUI         1 TEMP              0 ****  ****    0 ROOT
