@<TRIPOS>MOLECULE
GUJ
   39    42     1     0     0
SMALL
No Charge or Current Charge


@<TRIPOS>ATOM
      1 C1          12.1710     4.1040    -1.1630 cc         1 GUJ       0.406800
      2 C2          12.9080     5.4120     0.4610 cc         1 GUJ       0.376800
      3 C3          10.5520     5.2940     0.1810 cc         1 GUJ      -0.105200
      4 C4           8.3490     6.3760    -0.0290 cc         1 GUJ      -0.190300
      5 C5           7.0310     6.9090    -0.5310 c3         1 GUJ      -0.022800
      6 C10          6.5810     3.9220     4.1000 ca         1 GUJ      -0.107000
      7 C11          6.9080     4.1370     5.4490 ca         1 GUJ      -0.108000
      8 C12          7.6160     5.2910     5.8230 ca         1 GUJ      -0.107000
      9 C13          7.9970     6.2300     4.8490 ca         1 GUJ      -0.106500
     10 C14         10.1450     5.7940     1.4080 cd         1 GUJ      -0.131300
     11 C16         12.9830     6.2050     1.7350 c3         1 GUJ       0.123300
     12 C15         10.8280     5.7230     2.7790 c3         1 GUJ       0.215900
     13 S            9.4520     5.5950    -1.1490 ss         1 GUJ       0.208000
     14 C6           8.8480     6.4120     1.2640 cd         1 GUJ      -0.091300
     15 O           12.2470     5.4760     2.7360 os         1 GUJ      -0.436000
     16 N1          13.9180     5.1640    -0.3620 nd         1 GUJ      -0.344000
     17 N           13.4580     4.3440    -1.3730 nd         1 GUJ      -0.356000
     18 N2          11.8170     4.6950     0.0320 na         1 GUJ      -0.251800
     19 C           11.3390     3.1580    -1.9870 c3         1 GUJ      -0.127400
     20 C7           8.0940     7.0290     2.4300 c3         1 GUJ       0.031200
     21 C8           7.6750     6.0190     3.4930 ca         1 GUJ      -0.087300
     22 C9           6.9620     4.8600     3.1260 ca         1 GUJ      -0.106500
     23 H1           6.8880     6.6860    -1.5950 hc         1 GUJ       0.051700
     24 H2           6.1930     6.4630     0.0170 hc         1 GUJ       0.051700
     25 H3           6.9770     7.9980    -0.4090 hc         1 GUJ       0.051700
     26 H5           6.6140     3.4100     6.2040 ha         1 GUJ       0.115000
     27 H6           7.8690     5.4590     6.8680 ha         1 GUJ       0.114500
     28 H7           8.5450     7.1200     5.1510 ha         1 GUJ       0.112500
     29 H8          14.0360     6.2980     2.0280 h1         1 GUJ       0.076700
     30 H9          12.5790     7.2140     1.5790 h1         1 GUJ       0.076700
     31 H10         10.6530     6.6730     3.3000 h1         1 GUJ       0.066200
     32 H11         10.3350     4.9420     3.3730 h1         1 GUJ       0.066200
     33 H12         11.9380     2.2980    -2.3060 hc         1 GUJ       0.064700
     34 H13         10.4880     2.7760    -1.4140 hc         1 GUJ       0.064700
     35 H14         10.9600     3.6560    -2.8870 hc         1 GUJ       0.064700
     36 H15          8.7100     7.8190     2.8760 hc         1 GUJ       0.057700
     37 H16          7.1980     7.5510     2.0780 hc         1 GUJ       0.057700
     38 H17          6.7070     4.6850     2.0830 ha         1 GUJ       0.112500
     39 H4           6.0330     3.0280     3.8090 ha         1 GUJ       0.114500
@<TRIPOS>BOND
     1     1    17 2   
     2     1    18 1   
     3     1    19 1   
     4     2    11 1   
     5     2    16 2   
     6     2    18 1   
     7     3    10 2   
     8     3    13 1   
     9     3    18 1   
    10     4     5 1   
    11     4    13 1   
    12     4    14 2   
    13     5    23 1   
    14     5    24 1   
    15     5    25 1   
    16     6     7 ar  
    17     6    22 ar  
    18     6    39 1   
    19     7     8 ar  
    20     7    26 1   
    21     8     9 ar  
    22     8    27 1   
    23     9    21 ar  
    24     9    28 1   
    25    10    12 1   
    26    10    14 1   
    27    11    15 1   
    28    11    29 1   
    29    11    30 1   
    30    12    15 1   
    31    12    31 1   
    32    12    32 1   
    33    14    20 1   
    34    16    17 1   
    35    19    33 1   
    36    19    34 1   
    37    19    35 1   
    38    20    21 1   
    39    20    36 1   
    40    20    37 1   
    41    21    22 ar  
    42    22    38 1   
@<TRIPOS>SUBSTRUCTURE
     1 GUJ         1 TEMP              0 ****  ****    0 ROOT
