@<TRIPOS>MOLECULE
GUJ
   39    42     1     0     0
SMALL
abcg2


@<TRIPOS>ATOM
      1 C1          12.1900     3.9820    -1.1290 cc         1 GUJ       0.406800
      2 C2          13.0220     5.2260     0.4640 cc         1 GUJ       0.376800
      3 C3          10.5760     5.4360     0.1670 cc         1 GUJ      -0.105200
      4 C4           8.2810     6.3960     0.0470 cc         1 GUJ      -0.190300
      5 C5           6.9160     6.8100    -0.4070 c3         1 GUJ      -0.022800
      6 C10          6.7890     3.8220     4.0300 ca         1 GUJ      -0.107000
      7 C11          6.8810     4.1000     5.3910 ca         1 GUJ      -0.108000
      8 C12          7.3770     5.3320     5.8060 ca         1 GUJ      -0.107000
      9 C13          7.7790     6.2760     4.8650 ca         1 GUJ      -0.106500
     10 C14         10.1630     5.9430     1.3730 cd         1 GUJ      -0.131300
     11 C16         13.0740     6.0920     1.6680 c3         1 GUJ       0.123300
     12 C15         10.9150     6.0190     2.6780 c3         1 GUJ       0.215900
     13 S            9.3710     5.6540    -1.0680 ss         1 GUJ       0.208000
     14 C6           8.8330     6.4880     1.2940 cd         1 GUJ      -0.091300
     15 O           12.2420     5.5240     2.6790 os         1 GUJ      -0.436000
     16 N1          14.0090     4.5620    -0.0720 nd         1 GUJ      -0.344000
     17 N           13.4850     3.7860    -1.0890 nd         1 GUJ      -0.356000
     18 N2          11.8400     4.9030    -0.1610 na         1 GUJ      -0.251800
     19 C           11.2620     3.2940    -2.0600 c3         1 GUJ      -0.127400
     20 C7           8.1050     7.0520     2.4820 c3         1 GUJ       0.031200
     21 C8           7.6880     6.0070     3.4990 ca         1 GUJ      -0.087300
     22 C9           7.1910     4.7680     3.0940 ca         1 GUJ      -0.106500
     23 H1           6.7800     6.6230    -1.4720 hc         1 GUJ       0.051700
     24 H2           6.1410     6.2610     0.1330 hc         1 GUJ       0.051700
     25 H3           6.7540     7.8750    -0.2310 hc         1 GUJ       0.051700
     26 H5           6.5720     3.3620     6.1210 ha         1 GUJ       0.115000
     27 H6           7.4590     5.5570     6.8620 ha         1 GUJ       0.114500
     28 H7           8.1750     7.2290     5.1930 ha         1 GUJ       0.112500
     29 H8          14.0970     6.1100     2.0400 h1         1 GUJ       0.076700
     30 H9          12.7620     7.1160     1.4420 h1         1 GUJ       0.076700
     31 H10         10.9140     7.0660     3.0100 h1         1 GUJ       0.066200
     32 H11         10.3870     5.4400     3.4360 h1         1 GUJ       0.066200
     33 H12         11.8100     2.4950    -2.5560 hc         1 GUJ       0.064700
     34 H13         10.4120     2.8670    -1.5270 hc         1 GUJ       0.064700
     35 H14         10.8770     3.9720    -2.8230 hc         1 GUJ       0.064700
     36 H15          8.7250     7.8010     2.9810 hc         1 GUJ       0.057700
     37 H16          7.2160     7.5810     2.1320 hc         1 GUJ       0.057700
     38 H17          7.1260     4.5380     2.0370 ha         1 GUJ       0.112500
     39 H4           6.4060     2.8650     3.6970 ha         1 GUJ       0.114500
@<TRIPOS>BOND
     1     1    17 2   
     2     1    18 1   
     3     1    19 1   
     4     2    11 1   
     5     2    16 2   
     6     2    18 1   
     7     3    10 2   
     8     3    13 1   
     9     3    18 1   
    10     4     5 1   
    11     4    13 1   
    12     4    14 2   
    13     5    23 1   
    14     5    24 1   
    15     5    25 1   
    16     6     7 ar  
    17     6    22 ar  
    18     6    39 1   
    19     7     8 ar  
    20     7    26 1   
    21     8     9 ar  
    22     8    27 1   
    23     9    21 ar  
    24     9    28 1   
    25    10    12 1   
    26    10    14 1   
    27    11    15 1   
    28    11    29 1   
    29    11    30 1   
    30    12    15 1   
    31    12    31 1   
    32    12    32 1   
    33    14    20 1   
    34    16    17 1   
    35    19    33 1   
    36    19    34 1   
    37    19    35 1   
    38    20    21 1   
    39    20    36 1   
    40    20    37 1   
    41    21    22 ar  
    42    22    38 1   
@<TRIPOS>SUBSTRUCTURE
     1 GUJ         1 TEMP              0 ****  ****    0 ROOT
