@<TRIPOS>MOLECULE
GUK
   38    41     1     0     0
SMALL
No Charge or Current Charge


@<TRIPOS>ATOM
      1 CAM          5.8110     0.8050    -1.4210 c3         1 GUK      -0.112100
      2 CAL          5.3440     0.8680     0.0450 c3         1 GUK       0.234500
      3 CAN          6.1030     1.9350     0.8530 c3         1 GUK      -0.112100
      4 NAK          3.9100     1.1620     0.0910 nu         1 GUK      -0.935200
      5 CAD          2.8650     0.2780    -0.0090 cc         1 GUK       0.444000
      6 CAC          2.9780    -1.0620    -0.2300 cd         1 GUK      -0.327000
      7 CAB          1.7720    -1.8310    -0.3280 cd         1 GUK       0.466000
      8 Cl           1.9590    -3.5270    -0.6310 cl         1 GUK      -0.149000
      9 NAA          0.5210    -1.3770    -0.2150 nc         1 GUK      -0.512800
     10 NAF          0.4800    -0.0230     0.0460 na         1 GUK       0.272900
     11 CAE          1.5570     0.8140     0.1220 cc         1 GUK      -0.177000
     12 NAG          1.1460     2.0630     0.3200 nd         1 GUK      -0.281600
     13 CAH         -0.2440     2.0030     0.3520 cd         1 GUK      -0.055400
     14 CAI         -0.6760     0.7060     0.1660 cc         1 GUK      -0.057300
     15 CAO         -2.0880     0.3030     0.1960 ca         1 GUK      -0.037800
     16 CAT         -3.0860     1.1940    -0.2660 ca         1 GUK      -0.035000
     17 CAS         -4.4220     0.7770    -0.2170 ca         1 GUK      -0.151000
     18 CAW         -5.6150     1.4420    -0.6090 cc         1 GUK      -0.195100
     19 NAV         -6.6530     0.5550    -0.3350 na         1 GUK       0.015500
     20 NAU         -6.1900    -0.6500     0.2140 nc         1 GUK      -0.284400
     21 CAR         -4.8090    -0.4480     0.2590 ca         1 GUK      -0.062000
     22 CAQ         -3.8420    -1.3470     0.7280 ca         1 GUK      -0.087000
     23 CAP         -2.4820    -0.9670     0.6960 ca         1 GUK      -0.069000
     24 H1           6.8820     0.5750    -1.4720 hc         1 GUK       0.047700
     25 H2           5.2710     0.0240    -1.9690 hc         1 GUK       0.047700
     26 H3           5.6410     1.7620    -1.9280 hc         1 GUK       0.047700
     27 H4           5.5410    -0.1080     0.5140 h1         1 GUK       0.063700
     28 H5           5.9520     2.9350     0.4270 hc         1 GUK       0.047700
     29 H6           5.7610     1.9470     1.8950 hc         1 GUK       0.047700
     30 H7           7.1780     1.7210     0.8530 hc         1 GUK       0.047700
     31 H8           3.6140     2.1230     0.2640 hn         1 GUK       0.516000
     32 H9           3.9410    -1.5390    -0.3420 ha         1 GUK       0.144000
     33 H10         -0.8470     2.8920     0.5170 h4         1 GUK       0.230000
     34 H11         -2.8310     2.1740    -0.6620 ha         1 GUK       0.117000
     35 H12         -5.8070     2.4210    -1.0380 h4         1 GUK       0.227000
     36 H13         -7.6460     0.7100    -0.4940 hn         1 GUK       0.370000
     37 H14         -4.1330    -2.3210     1.1140 ha         1 GUK       0.128000
     38 H15         -1.7380    -1.6610     1.0770 ha         1 GUK       0.125000
@<TRIPOS>BOND
     1     1     2 1   
     2     1    24 1   
     3     1    25 1   
     4     1    26 1   
     5     2     3 1   
     6     2     4 1   
     7     2    27 1   
     8     3    28 1   
     9     3    29 1   
    10     3    30 1   
    11     4     5 1   
    12     4    31 1   
    13     5     6 2   
    14     5    11 1   
    15     6     7 1   
    16     6    32 1   
    17     7     8 1   
    18     7     9 2   
    19     9    10 1   
    20    10    11 1   
    21    10    14 1   
    22    11    12 2   
    23    12    13 1   
    24    13    14 2   
    25    13    33 1   
    26    14    15 1   
    27    15    16 ar  
    28    15    23 ar  
    29    16    17 ar  
    30    16    34 1   
    31    17    18 2   
    32    17    21 ar  
    33    18    19 1   
    34    18    35 1   
    35    19    20 1   
    36    19    36 1   
    37    20    21 2   
    38    21    22 ar  
    39    22    23 ar  
    40    22    37 1   
    41    23    38 1   
@<TRIPOS>SUBSTRUCTURE
     1 GUK         1 TEMP              0 ****  ****    0 ROOT
