@<TRIPOS>MOLECULE
GUK
   38    41     1     0     0
SMALL
bcc


@<TRIPOS>ATOM
      1 CAM          5.5640     0.8730    -1.5000 c3         1 GUK      -0.112100
      2 CAL          5.2590     0.7970    -0.0080 c3         1 GUK       0.234500
      3 CAN          6.1800     1.6920     0.8070 c3         1 GUK      -0.112100
      4 NAK          3.8800     1.1700     0.2680 nu         1 GUK      -0.741600
      5 CAD          2.8270     0.3720     0.1010 cc         1 GUK       0.305600
      6 CAC          2.8640    -0.9750    -0.2290 cd         1 GUK      -0.410300
      7 CAB          1.6450    -1.6610    -0.3390 cd         1 GUK       0.531300
      8 CL           1.7070    -3.3390    -0.7460 cl         1 GUK      -0.149000
      9 NAA          0.4510    -1.1880    -0.1770 nc         1 GUK      -0.512800
     10 NAF          0.4350     0.1130     0.1400 na         1 GUK       0.222200
     11 CAE          1.5240     0.9270     0.2800 cc         1 GUK      -0.126300
     12 NAG          1.1710     2.1630     0.5600 nd         1 GUK      -0.281600
     13 CAH         -0.1800     2.1410     0.5980 cd         1 GUK      -0.005400
     14 CAI         -0.6810     0.8820     0.3390 cc         1 GUK      -0.057300
     15 CAO         -2.0560     0.4020     0.2640 ca         1 GUK      -0.037800
     16 CAT         -3.0020     1.1870    -0.3490 ca         1 GUK      -0.053000
     17 CAS         -4.3390     0.7420    -0.3620 ca         1 GUK      -0.151000
     18 CAW         -5.5390     1.2340    -0.8690 cc         1 GUK      -0.145100
     19 NAV         -6.4580     0.3210    -0.5540 na         1 GUK       0.065800
     20 NAU         -6.0080    -0.7350     0.1090 nc         1 GUK      -0.284400
     21 CAR         -4.7010    -0.4970     0.2380 ca         1 GUK      -0.062000
     22 CAQ         -3.7160    -1.2930     0.8670 ca         1 GUK      -0.105000
     23 CAP         -2.4300    -0.8410     0.8720 ca         1 GUK      -0.087000
     24 H1           6.5890     0.5540    -1.6940 hc         1 GUK       0.047700
     25 H2           4.9000     0.2320    -2.0800 hc         1 GUK       0.047700
     26 H3           5.4520     1.8970    -1.8630 hc         1 GUK       0.047700
     27 H4           5.3960    -0.2320     0.3330 h1         1 GUK       0.063700
     28 H5           6.0490     2.7410     0.5360 hc         1 GUK       0.047700
     29 H6           5.9900     1.5860     1.8750 hc         1 GUK       0.047700
     30 H7           7.2200     1.4280     0.6200 hc         1 GUK       0.047700
     31 H8           3.6860     2.1460     0.4370 hn         1 GUK       0.460800
     32 H9           3.7910    -1.4980    -0.4050 ha         1 GUK       0.162000
     33 H10         -0.7580     3.0240     0.8260 h4         1 GUK       0.180000
     34 H11         -2.7250     2.1200    -0.8230 ha         1 GUK       0.135000
     35 H12         -5.7850     2.1340    -1.4090 h4         1 GUK       0.177000
     36 H13         -7.4400     0.3750    -0.7790 hn         1 GUK       0.319700
     37 H14         -3.9780    -2.2320     1.3370 ha         1 GUK       0.146000
     38 H15         -1.6670    -1.4310     1.3600 ha         1 GUK       0.143000
@<TRIPOS>BOND
     1     1     2 1   
     2     1    24 1   
     3     1    25 1   
     4     1    26 1   
     5     2     3 1   
     6     2     4 1   
     7     2    27 1   
     8     3    28 1   
     9     3    29 1   
    10     3    30 1   
    11     4     5 1   
    12     4    31 1   
    13     5     6 2   
    14     5    11 1   
    15     6     7 1   
    16     6    32 1   
    17     7     8 1   
    18     7     9 2   
    19     9    10 1   
    20    10    11 1   
    21    10    14 1   
    22    11    12 2   
    23    12    13 1   
    24    13    14 2   
    25    13    33 1   
    26    14    15 1   
    27    15    16 ar  
    28    15    23 ar  
    29    16    17 ar  
    30    16    34 1   
    31    17    18 2   
    32    17    21 ar  
    33    18    19 1   
    34    18    35 1   
    35    19    20 1   
    36    19    36 1   
    37    20    21 2   
    38    21    22 ar  
    39    22    23 ar  
    40    22    37 1   
    41    23    38 1   
@<TRIPOS>SUBSTRUCTURE
     1 GUK         1 TEMP              0 ****  ****    0 ROOT
