@<TRIPOS>MOLECULE
GUM
   75    78     1     0     0
SMALL
No Charge or Current Charge


@<TRIPOS>ATOM
      1 O1          -2.3430     0.1380     5.1290 os         1 GUM      -0.335200
      2 C2           0.9870    -1.1060     6.1120 ca         1 GUM      -0.029000
      3 O2          -4.3120     0.2920     6.2300 o          1 GUM      -0.490000
      4 C3           1.6910    -0.8840     4.9160 ca         1 GUM      -0.166000
      5 C4           1.0510    -0.3270     3.7990 ca         1 GUM       0.185100
      6 C5          -0.3130     0.0150     3.8870 ca         1 GUM      -0.209000
      7 C6          -1.0170    -0.2060     5.0790 ca         1 GUM       0.205100
      8 C7          -2.4820    -0.6130     7.4110 cc         1 GUM      -0.345200
      9 C8          -1.1570    -0.9790     7.4310 cd         1 GUM       0.053600
     10 C1          -0.3790    -0.7660     6.2020 ca         1 GUM      -0.189800
     11 C9          -3.1330    -0.0300     6.2320 c          1 GUM       0.675300
     12 C10         -0.5440    -1.5750     8.6750 c3         1 GUM      -0.065900
     13 O3           1.8120    -0.1300     2.6640 os         1 GUM      -0.318100
     14 C11          1.2460     0.4250     1.4640 c6         1 GUM       0.379300
     15 C12          2.3680     0.7370     0.4290 c6         1 GUM       0.036700
     16 C13          1.7080     1.2590    -0.8810 c6         1 GUM       0.162300
     17 C14          0.6290     0.2580    -1.4120 c6         1 GUM       0.153300
     18 C15         -0.3910    -0.0440    -0.2650 c6         1 GUM       0.153300
     19 O4           0.3270    -0.5290     0.8970 os         1 GUM      -0.458000
     20 N1           3.3610     1.7150     0.9550 ns         1 GUM      -0.516900
     21 C16         -1.4900    -1.0970    -0.6260 c3         1 GUM       0.168600
     22 O5          -2.3510    -1.4210     0.4830 oh         1 GUM      -0.708000
     23 C17          4.5350     1.3890     1.5970 c          1 GUM       0.607100
     24 O6           4.9330     0.2390     1.6980 o          1 GUM      -0.575100
     25 C18          5.3060     2.5750     2.1580 c3         1 GUM      -0.183100
     26 O7          -0.0130     0.7940    -2.6000 os         1 GUM      -0.422000
     27 O8           2.7220     1.5250    -1.8710 oh         1 GUM      -0.681000
     28 C19         -0.3930    -0.1620    -3.6080 c6         1 GUM       0.385300
     29 C20         -1.4240     0.4630    -4.6010 c6         1 GUM       0.085700
     30 C21         -1.7170    -0.5890    -5.7120 c6         1 GUM       0.165300
     31 C22         -0.4030    -1.0660    -6.4010 c6         1 GUM       0.096300
     32 C23          0.5740    -1.5990    -5.3060 c6         1 GUM       0.152300
     33 O9           0.7930    -0.5610    -4.3190 os         1 GUM      -0.446000
     34 N2          -2.6810     0.8780    -3.9230 ns         1 GUM      -0.502900
     35 O10         -0.7150    -2.0700    -7.3960 oh         1 GUM      -0.724000
     36 C24          1.9650    -2.0300    -5.8800 c3         1 GUM       0.172600
     37 O11          2.8840    -2.4780    -4.8640 oh         1 GUM      -0.701000
     38 C25         -2.9170     2.1070    -3.3530 c          1 GUM       0.612100
     39 O12         -2.1050     3.0190    -3.3840 o          1 GUM      -0.585100
     40 C26         -4.2790     2.2460    -2.6870 c3         1 GUM      -0.185100
     41 O13         -2.6140    -0.0700    -6.7050 oh         1 GUM      -0.642000
     42 H2           1.5150    -1.5400     6.9580 ha         1 GUM       0.120000
     43 H3           2.7440    -1.1460     4.8540 ha         1 GUM       0.138000
     44 H5          -0.8490     0.4440     3.0470 ha         1 GUM       0.163000
     45 H7          -3.1270    -0.7350     8.2720 ha         1 GUM       0.211000
     46 H101        -1.2740    -1.6580     9.4890 hc         1 GUM       0.054033
     47 H102        -0.1570    -2.5810     8.4790 hc         1 GUM       0.054033
     48 H103         0.2840    -0.9560     9.0400 hc         1 GUM       0.054033
     49 H11          0.7150     1.3560     1.7100 h2         1 GUM       0.035700
     50 H12          2.8830    -0.2090     0.2060 h1         1 GUM       0.123700
     51 H13          1.1910     2.2000    -0.6390 h1         1 GUM       0.040700
     52 H14          1.1450    -0.6770    -1.6780 h1         1 GUM       0.080700
     53 H15         -0.9070     0.8890     0.0060 h1         1 GUM       0.067700
     54 HN1          3.1150     2.7000     0.9590 hn         1 GUM       0.306500
     55 H161        -2.0950    -0.6940    -1.4470 h1         1 GUM       0.031200
     56 H162        -0.9900    -2.0040    -0.9930 h1         1 GUM       0.031200
     57 HO5         -2.9240    -2.1700     0.1980 ho         1 GUM       0.507000
     58 H181         6.2390     2.2780     2.6490 hc         1 GUM       0.062033
     59 H182         5.4840     3.2990     1.3540 hc         1 GUM       0.062033
     60 H183         4.6530     3.1360     2.8360 hc         1 GUM       0.062033
     61 HO8          3.4670     1.9590    -1.3990 ho         1 GUM       0.510000
     62 H19         -0.8430    -1.0460    -3.1370 h2         1 GUM       0.013700
     63 H20         -0.9590     1.3460    -5.0630 h1         1 GUM       0.119700
     64 H21         -2.1800    -1.4640    -5.2330 h1         1 GUM       0.035700
     65 H22          0.0670    -0.1930    -6.8810 h1         1 GUM       0.063700
     66 H23          0.1260    -2.4720    -4.8090 h1         1 GUM       0.057700
     67 HN2         -3.4440     0.2140    -3.8840 hn         1 GUM       0.305500
     68 HOA          0.0140    -2.0720    -8.0630 ho         1 GUM       0.514000
     69 H241         1.8050    -2.8320    -6.6110 h1         1 GUM       0.025700
     70 H242         2.3930    -1.1740    -6.4210 h1         1 GUM       0.025700
     71 HOB          3.7470    -2.6430    -5.3110 ho         1 GUM       0.506000
     72 H261        -4.4350     3.2390    -2.2510 hc         1 GUM       0.062367
     73 H262        -5.0590     1.9960    -3.4140 hc         1 GUM       0.062367
     74 H263        -4.3930     1.4530    -1.9390 hc         1 GUM       0.062367
     75 HOD         -2.5310    -0.6940    -7.4620 ho         1 GUM       0.458000
@<TRIPOS>BOND
     1     1     7 1   
     2     1    11 1   
     3     2     4 ar  
     4     2    10 ar  
     5     2    42 1   
     6     3    11 2   
     7     4     5 ar  
     8     4    43 1   
     9     5     6 ar  
    10     5    13 1   
    11     6     7 ar  
    12     6    44 1   
    13     7    10 ar  
    14     8     9 2   
    15     8    11 1   
    16     8    45 1   
    17     9    10 1   
    18     9    12 1   
    19    12    46 1   
    20    12    47 1   
    21    12    48 1   
    22    13    14 1   
    23    14    15 1   
    24    14    19 1   
    25    14    49 1   
    26    15    16 1   
    27    15    20 1   
    28    15    50 1   
    29    16    17 1   
    30    16    27 1   
    31    16    51 1   
    32    17    18 1   
    33    17    26 1   
    34    17    52 1   
    35    18    19 1   
    36    18    21 1   
    37    18    53 1   
    38    20    23 1   
    39    20    54 1   
    40    21    22 1   
    41    21    55 1   
    42    21    56 1   
    43    22    57 1   
    44    23    24 2   
    45    23    25 1   
    46    25    58 1   
    47    25    59 1   
    48    25    60 1   
    49    26    28 1   
    50    27    61 1   
    51    28    29 1   
    52    28    33 1   
    53    28    62 1   
    54    29    30 1   
    55    29    34 1   
    56    29    63 1   
    57    30    31 1   
    58    30    41 1   
    59    30    64 1   
    60    31    32 1   
    61    31    35 1   
    62    31    65 1   
    63    32    33 1   
    64    32    36 1   
    65    32    66 1   
    66    34    38 1   
    67    34    67 1   
    68    35    68 1   
    69    36    37 1   
    70    36    69 1   
    71    36    70 1   
    72    37    71 1   
    73    38    39 2   
    74    38    40 1   
    75    40    72 1   
    76    40    73 1   
    77    40    74 1   
    78    41    75 1   
@<TRIPOS>SUBSTRUCTURE
     1 GUM         1 TEMP              0 ****  ****    0 ROOT
