@<TRIPOS>MOLECULE
GUM
   75    78     1     0     0
SMALL
bcc


@<TRIPOS>ATOM
      1 O1          -2.4170     0.1170     5.0320 os         1 GUM      -0.335200
      2 C2           0.9820    -0.5900     6.1300 ca         1 GUM      -0.047000
      3 O2          -4.3270     0.4590     6.0500 o          1 GUM      -0.565500
      4 C3           1.6130    -0.6660     4.9120 ca         1 GUM      -0.184000
      5 C4           0.8800    -0.4780     3.7340 ca         1 GUM       0.185100
      6 C5          -0.4830    -0.2240     3.7850 ca         1 GUM      -0.227000
      7 C6          -1.0900    -0.1380     5.0300 ca         1 GUM       0.205100
      8 C7          -2.4420     0.0460     7.4180 cc         1 GUM      -0.295200
      9 C8          -1.1170    -0.2160     7.4650 cd         1 GUM       0.053600
     10 C1          -0.3900    -0.3160     6.2220 ca         1 GUM      -0.189800
     11 C9          -3.1490     0.2240     6.1740 c          1 GUM       0.750800
     12 C10         -0.4070    -0.3990     8.7630 c3         1 GUM      -0.065900
     13 O3           1.5860    -0.5720     2.5870 os         1 GUM      -0.294900
     14 C11          1.0820    -0.0060     1.4210 c6         1 GUM       0.332900
     15 C12          2.2370     0.1760     0.4410 c6         1 GUM       0.036700
     16 C13          1.6910     0.6850    -0.8990 c6         1 GUM       0.139100
     17 C14          0.5480    -0.1960    -1.3970 c6         1 GUM       0.130100
     18 C15         -0.4870    -0.3680    -0.2770 c6         1 GUM       0.130100
     19 O4           0.1460    -0.8830     0.8790 os         1 GUM      -0.411600
     20 N1           3.2230     1.0910     0.9510 ns         1 GUM      -0.583900
     21 C16         -1.6090    -1.3210    -0.6250 c3         1 GUM       0.145400
     22 O5          -2.5830    -1.2360     0.3870 oh         1 GUM      -0.585800
     23 C17          4.3940     0.7080     1.5150 c          1 GUM       0.674100
     24 O6           4.7880    -0.4450     1.5130 o          1 GUM      -0.575100
     25 C18          5.1660     1.8360     2.1520 c3         1 GUM      -0.183100
     26 O7          -0.0650     0.4600    -2.4870 os         1 GUM      -0.375600
     27 O8           2.6920     0.7170    -1.8730 oh         1 GUM      -0.558800
     28 C19         -0.2660    -0.2580    -3.6460 c6         1 GUM       0.338900
     29 C20         -1.3750     0.4420    -4.4430 c6         1 GUM       0.085700
     30 C21         -1.5280    -0.2330    -5.8010 c6         1 GUM       0.142100
     31 C22         -0.1770    -0.3500    -6.5000 c6         1 GUM       0.073100
     32 C23          0.8360    -1.0250    -5.5680 c6         1 GUM       0.129100
     33 O9           0.9270    -0.2780    -4.3730 os         1 GUM      -0.399600
     34 N2          -2.6200     0.4120    -3.7220 ns         1 GUM      -0.569900
     35 O10         -0.3920    -1.0960    -7.6770 oh         1 GUM      -0.601800
     36 C24          2.2150    -1.1010    -6.1830 c3         1 GUM       0.149400
     37 O11          3.0520    -1.8600    -5.3470 oh         1 GUM      -0.578800
     38 C25         -3.0820     1.4170    -2.9480 c          1 GUM       0.679100
     39 O12         -2.5440     2.5100    -2.8780 o          1 GUM      -0.585100
     40 C26         -4.3100     1.0680    -2.1420 c3         1 GUM      -0.185100
     41 O13         -2.4460     0.5100    -6.5570 oh         1 GUM      -0.579800
     42 H2           1.5620    -0.7360     7.0320 ha         1 GUM       0.138000
     43 H3           2.6750    -0.8620     4.8520 ha         1 GUM       0.156000
     44 H5          -1.0910    -0.1220     2.8970 ha         1 GUM       0.181000
     45 H7          -3.0300     0.1320     8.3220 ha         1 GUM       0.161000
     46 H101        -1.0950    -0.3260     9.6020 hc         1 GUM       0.054033
     47 H102         0.0830    -1.3730     8.8030 hc         1 GUM       0.054033
     48 H103         0.3700     0.3560     8.8910 hc         1 GUM       0.054033
     49 H11          0.6140     0.9700     1.6450 h2         1 GUM       0.035700
     50 H12          2.7140    -0.7950     0.2880 h1         1 GUM       0.123700
     51 H13          1.2700     1.6910    -0.7310 h1         1 GUM       0.040700
     52 H14          0.9480    -1.1770    -1.6880 h1         1 GUM       0.080700
     53 H15         -0.9200     0.6230    -0.0620 h1         1 GUM       0.067700
     54 HN1          2.9460     2.0560     1.0560 hn         1 GUM       0.306500
     55 H161        -2.0220    -1.0460    -1.6000 h1         1 GUM       0.031200
     56 H162        -1.2010    -2.3360    -0.7210 h1         1 GUM       0.031200
     57 HO5         -3.3000    -1.8360     0.1640 ho         1 GUM       0.408000
     58 H181         6.1860     1.5260     2.3620 hc         1 GUM       0.062033
     59 H182         5.1860     2.7230     1.5200 hc         1 GUM       0.062033
     60 H183         4.6910     2.1180     3.0940 hc         1 GUM       0.062033
     61 HO8          3.3760     1.3280    -1.5770 ho         1 GUM       0.411000
     62 H19         -0.5810    -1.2970    -3.4290 h2         1 GUM       0.013700
     63 H20         -1.0840     1.4860    -4.5900 h1         1 GUM       0.119700
     64 H21         -1.9000    -1.2600    -5.6370 h1         1 GUM       0.035700
     65 H22          0.1830     0.6630    -6.7320 h1         1 GUM       0.063700
     66 H23          0.4860    -2.0490    -5.3520 h1         1 GUM       0.057700
     67 HN2         -3.1460    -0.4490    -3.7390 hn         1 GUM       0.305500
     68 HOA          0.2170    -0.7960    -8.3580 ho         1 GUM       0.415000
     69 H241         2.1240    -1.5560    -7.1770 h1         1 GUM       0.025700
     70 H242         2.5950    -0.0800    -6.3300 h1         1 GUM       0.025700
     71 HOB          3.9110    -1.9290    -5.7730 ho         1 GUM       0.407000
     72 H261        -4.9080     1.9590    -1.9650 hc         1 GUM       0.062367
     73 H262        -4.9310     0.3130    -2.6220 hc         1 GUM       0.062367
     74 H263        -4.0020     0.6740    -1.1710 hc         1 GUM       0.062367
     75 HOD         -2.5400     0.0760    -7.4120 ho         1 GUM       0.419000
@<TRIPOS>BOND
     1     1     7 1   
     2     1    11 1   
     3     2     4 ar  
     4     2    10 ar  
     5     2    42 1   
     6     3    11 2   
     7     4     5 ar  
     8     4    43 1   
     9     5     6 ar  
    10     5    13 1   
    11     6     7 ar  
    12     6    44 1   
    13     7    10 ar  
    14     8     9 2   
    15     8    11 1   
    16     8    45 1   
    17     9    10 1   
    18     9    12 1   
    19    12    46 1   
    20    12    47 1   
    21    12    48 1   
    22    13    14 1   
    23    14    15 1   
    24    14    19 1   
    25    14    49 1   
    26    15    16 1   
    27    15    20 1   
    28    15    50 1   
    29    16    17 1   
    30    16    27 1   
    31    16    51 1   
    32    17    18 1   
    33    17    26 1   
    34    17    52 1   
    35    18    19 1   
    36    18    21 1   
    37    18    53 1   
    38    20    23 1   
    39    20    54 1   
    40    21    22 1   
    41    21    55 1   
    42    21    56 1   
    43    22    57 1   
    44    23    24 2   
    45    23    25 1   
    46    25    58 1   
    47    25    59 1   
    48    25    60 1   
    49    26    28 1   
    50    27    61 1   
    51    28    29 1   
    52    28    33 1   
    53    28    62 1   
    54    29    30 1   
    55    29    34 1   
    56    29    63 1   
    57    30    31 1   
    58    30    41 1   
    59    30    64 1   
    60    31    32 1   
    61    31    35 1   
    62    31    65 1   
    63    32    33 1   
    64    32    36 1   
    65    32    66 1   
    66    34    38 1   
    67    34    67 1   
    68    35    68 1   
    69    36    37 1   
    70    36    69 1   
    71    36    70 1   
    72    37    71 1   
    73    38    39 2   
    74    38    40 1   
    75    40    72 1   
    76    40    73 1   
    77    40    74 1   
    78    41    75 1   
@<TRIPOS>SUBSTRUCTURE
     1 GUM         1 TEMP              0 ****  ****    0 ROOT
