@<TRIPOS>MOLECULE
GUN
   16    17     1     0     0
SMALL
abcg2


@<TRIPOS>ATOM
      1 N9           1.4930     0.0430    -1.7290 na         1 GUN      -0.308500
      2 C8           0.5170     0.0580    -2.6850 cc         1 GUN       0.393400
      3 N7          -0.6800     0.0400    -2.1820 nd         1 GUN      -0.593000
      4 C5          -0.4810     0.0110    -0.8250 cd         1 GUN       0.087500
      5 C6          -1.4190    -0.0210     0.2470 c          1 GUN       0.521500
      6 O6          -2.6370    -0.0300     0.1990 o          1 GUN      -0.513000
      7 N1          -0.7550    -0.0440     1.4810 ns         1 GUN      -0.459400
      8 C2           0.5970    -0.0360     1.6690 cd         1 GUN       0.734800
      9 N2           1.0330    -0.1010     2.9370 nv         1 GUN      -1.043200
     10 N3           1.4570    -0.0060     0.6820 nc         1 GUN      -0.708100
     11 C4           0.8710     0.0130    -0.5250 cc         1 GUN       0.140400
     12 HN9          2.4880     0.0540    -1.8900 hn         1 GUN       0.365000
     13 H8           0.7600     0.0830    -3.7360 h5         1 GUN       0.060100
     14 HN1         -1.3540    -0.0820     2.2960 hn         1 GUN       0.322500
     15 HN21         2.0140     0.0540     3.0960 hn         1 GUN       0.499500
     16 HN22         0.4200     0.1180     3.7040 hn         1 GUN       0.499500
@<TRIPOS>BOND
     1     1     2 1   
     2     1    11 1   
     3     1    12 1   
     4     2     3 2   
     5     2    13 1   
     6     3     4 1   
     7     4     5 1   
     8     4    11 2   
     9     5     6 2   
    10     5     7 1   
    11     7     8 1   
    12     7    14 1   
    13     8     9 1   
    14     8    10 2   
    15     9    15 1   
    16     9    16 1   
    17    10    11 1   
@<TRIPOS>SUBSTRUCTURE
     1 GUN         1 TEMP              0 ****  ****    0 ROOT
