@<TRIPOS>MOLECULE
GUN
   16    17     1     0     0
SMALL
No Charge or Current Charge


@<TRIPOS>ATOM
      1 N9           1.5220     0.0410    -1.7300 na         1 GUN      -0.308500
      2 C8           0.5580     0.0840    -2.7130 cc         1 GUN       0.393400
      3 N7          -0.6630     0.0680    -2.1840 nd         1 GUN      -0.593000
      4 C5          -0.4680     0.0120    -0.8070 cd         1 GUN       0.087500
      5 C6          -1.4360    -0.0320     0.3280 c          1 GUN       0.521500
      6 O6          -2.6550    -0.0270     0.2290 o          1 GUN      -0.513000
      7 N1          -0.8050    -0.0810     1.5390 ns         1 GUN      -0.459400
      8 C2           0.5370    -0.0920     1.6780 cd         1 GUN       0.734800
      9 N2           1.0180    -0.1370     2.9070 nv         1 GUN      -1.043200
     10 N3           1.4370    -0.0580     0.7240 nc         1 GUN      -0.708100
     11 C4           0.8770    -0.0050    -0.5310 cc         1 GUN       0.140400
     12 HN9          2.5200     0.0430    -1.8780 hn         1 GUN       0.365000
     13 H8           0.8030     0.1260    -3.7680 h5         1 GUN       0.060100
     14 HN1         -1.3950    -0.1330     2.3530 hn         1 GUN       0.322500
     15 HN21         2.0110     0.0530     2.9530 hn         1 GUN       0.499500
     16 HN22         0.4630     0.2930     3.6360 hn         1 GUN       0.499500
@<TRIPOS>BOND
     1     1     2 1   
     2     1    11 1   
     3     1    12 1   
     4     2     3 2   
     5     2    13 1   
     6     3     4 1   
     7     4     5 1   
     8     4    11 2   
     9     5     6 2   
    10     5     7 1   
    11     7     8 1   
    12     7    14 1   
    13     8     9 1   
    14     8    10 2   
    15     9    15 1   
    16     9    16 1   
    17    10    11 1   
@<TRIPOS>SUBSTRUCTURE
     1 GUN         1 TEMP              0 ****  ****    0 ROOT
