@<TRIPOS>MOLECULE
GUP
   24    24     1     0     0
SMALL
No Charge or Current Charge


@<TRIPOS>ATOM
      1 O5          19.2360   -11.6660    22.2270 os         1 GUP      -0.442000
      2 C1          18.0400   -11.1520    22.8460 c6         1 GUP       0.407300
      3 O1          17.0800   -12.2190    22.8560 oh         1 GUP      -0.761000
      4 C2          18.3500   -10.6550    24.3070 c6         1 GUP       0.068300
      5 O2          17.1730   -10.1420    24.9810 oh         1 GUP      -0.723000
      6 C3          18.9910   -11.8170    25.1340 c6         1 GUP       0.113300
      7 O3          18.0170   -12.8680    25.2890 oh         1 GUP      -0.713000
      8 C4          20.2710   -12.3440    24.3990 c6         1 GUP       0.112300
      9 O4          21.2940   -11.3230    24.3990 oh         1 GUP      -0.708000
     10 C5          19.8820   -12.7640    22.9390 c6         1 GUP       0.130300
     11 C6          21.1040   -13.2240    22.0850 c3         1 GUP       0.172600
     12 O6          20.7430   -13.4050    20.7050 oh         1 GUP      -0.716000
     13 H1          17.6600   -10.3030    22.2540 h2         1 GUP       0.079700
     14 HO1         16.8410   -12.3490    21.9080 ho         1 GUP       0.538000
     15 H2          19.0920    -9.8470    24.2190 h1         1 GUP       0.066700
     16 HO2         16.6640   -10.9340    25.2790 ho         1 GUP       0.519000
     17 H3          19.2880   -11.4340    26.1220 h1         1 GUP       0.063700
     18 HO3         17.5370   -12.8820    24.4110 ho         1 GUP       0.529000
     19 H4          20.6370   -13.2370    24.9300 h1         1 GUP       0.058700
     20 HO4         21.6450   -11.2570    25.3170 ho         1 GUP       0.504000
     21 H5          19.1920   -13.6190    22.9860 h1         1 GUP       0.071700
     22 H61         21.5000   -14.1560    22.5100 h1         1 GUP       0.057700
     23 H62         21.8960   -12.4660    22.1660 h1         1 GUP       0.057700
     24 HO6         20.1220   -12.6630    20.5090 ho         1 GUP       0.514000
@<TRIPOS>BOND
     1     1     2 1   
     2     1    10 1   
     3     2     3 1   
     4     2     4 1   
     5     2    13 1   
     6     3    14 1   
     7     4     5 1   
     8     4     6 1   
     9     4    15 1   
    10     5    16 1   
    11     6     7 1   
    12     6     8 1   
    13     6    17 1   
    14     7    18 1   
    15     8     9 1   
    16     8    10 1   
    17     8    19 1   
    18     9    20 1   
    19    10    11 1   
    20    10    21 1   
    21    11    12 1   
    22    11    22 1   
    23    11    23 1   
    24    12    24 1   
@<TRIPOS>SUBSTRUCTURE
     1 GUP         1 TEMP              0 ****  ****    0 ROOT
