@<TRIPOS>MOLECULE
GUP
   24    24     1     0     0
SMALL
bcc


@<TRIPOS>ATOM
      1 O5          19.3190   -11.6510    22.2250 os         1 GUP      -0.395600
      2 C1          18.1270   -11.1810    22.7510 c6         1 GUP       0.360900
      3 O1          17.1360   -12.1670    22.5650 oh         1 GUP      -0.638800
      4 C2          18.2850   -10.8120    24.2290 c6         1 GUP       0.045100
      5 O2          17.0180   -10.4000    24.6770 oh         1 GUP      -0.600800
      6 C3          18.8670   -11.9800    25.0310 c6         1 GUP       0.090100
      7 O3          17.9790   -13.0610    25.1830 oh         1 GUP      -0.590800
      8 C4          20.1820   -12.4310    24.3660 c6         1 GUP       0.089100
      9 O4          21.1700   -11.4300    24.4510 oh         1 GUP      -0.585800
     10 C5          19.9300   -12.7480    22.9000 c6         1 GUP       0.107100
     11 C6          21.1960   -13.0790    22.1260 c3         1 GUP       0.149400
     12 O6          20.9250   -13.5610    20.8310 oh         1 GUP      -0.593800
     13 H1          17.8790   -10.2810    22.1750 h2         1 GUP       0.079700
     14 HO1         16.2820   -11.7930    22.8100 ho         1 GUP       0.439000
     15 H2          19.0090    -9.9890    24.2760 h1         1 GUP       0.066700
     16 HO2         17.0820   -10.1330    25.6000 ho         1 GUP       0.420000
     17 H3          19.1000   -11.6300    26.0450 h1         1 GUP       0.063700
     18 HO3         17.4980   -13.1810    24.3560 ho         1 GUP       0.430000
     19 H4          20.5110   -13.3590    24.8540 h1         1 GUP       0.058700
     20 HO4         21.3860   -11.2940    25.3790 ho         1 GUP       0.405000
     21 H5          19.2800   -13.6320    22.8590 h1         1 GUP       0.071700
     22 H61         21.7240   -13.8740    22.6570 h1         1 GUP       0.057700
     23 H62         21.8570   -12.2060    22.1030 h1         1 GUP       0.057700
     24 HO6         20.5130   -12.8520    20.3290 ho         1 GUP       0.415000
@<TRIPOS>BOND
     1     1     2 1   
     2     1    10 1   
     3     2     3 1   
     4     2     4 1   
     5     2    13 1   
     6     3    14 1   
     7     4     5 1   
     8     4     6 1   
     9     4    15 1   
    10     5    16 1   
    11     6     7 1   
    12     6     8 1   
    13     6    17 1   
    14     7    18 1   
    15     8     9 1   
    16     8    10 1   
    17     8    19 1   
    18     9    20 1   
    19    10    11 1   
    20    10    21 1   
    21    11    12 1   
    22    11    22 1   
    23    11    23 1   
    24    12    24 1   
@<TRIPOS>SUBSTRUCTURE
     1 GUP         1 TEMP              0 ****  ****    0 ROOT
