@<TRIPOS>MOLECULE
GUQ
   38    41     1     0     0
SMALL
No Charge or Current Charge


@<TRIPOS>ATOM
      1 C14          5.9040     1.7530     0.5960 ca         1 GUQ      -0.104000
      2 C13          4.5350     1.9490     0.8720 ca         1 GUQ      -0.068000
      3 C12          3.6010     0.9960     0.4360 ca         1 GUQ       0.128400
      4 C16          5.3850    -0.3400    -0.5500 ca         1 GUQ      -0.065000
      5 C15          6.3280     0.6100    -0.1140 ca         1 GUQ      -0.110000
      6 N           -1.6940    -2.9600    -0.3490 ns         1 GUQ      -0.488500
      7 C           -5.1070     0.4750     2.1820 c3         1 GUQ       0.148900
      8 C1          -3.5600     1.0250     0.3330 ca         1 GUQ       0.177100
      9 C10         -2.6640    -2.0380    -0.5820 c          1 GUQ       0.591200
     10 C11          1.6670     0.0200     0.1260 cc         1 GUQ       0.624100
     11 C17          4.0290    -0.1190    -0.2600 ca         1 GUQ      -0.191000
     12 C2          -4.0760     2.3350     0.2070 ca         1 GUQ      -0.202000
     13 C3          -3.5510     3.2120    -0.7570 ca         1 GUQ      -0.055000
     14 C4          -2.5100     2.7890    -1.5980 ca         1 GUQ      -0.151000
     15 C5          -1.9930     1.4890    -1.4780 ca         1 GUQ      -0.056000
     16 C6          -2.5120     0.6020    -0.5140 ca         1 GUQ      -0.092800
     17 C7          -1.9660    -0.7540    -0.4070 cc         1 GUQ      -0.134400
     18 C8          -0.6450    -0.9950    -0.0980 cd         1 GUQ       0.078800
     19 C9          -0.4590    -2.4840    -0.0390 c          1 GUQ       0.566200
     20 N1           0.3030    -0.0160     0.1850 nu         1 GUQ      -0.729200
     21 N2           2.2320     1.1010     0.6570 nd         1 GUQ      -0.601100
     22 O2           0.5200    -3.1560     0.2450 o          1 GUQ      -0.468000
     23 S            2.6970    -1.1660    -0.7150 ss         1 GUQ       0.030800
     24 H10          6.6350     2.4860     0.9310 ha         1 GUQ       0.117000
     25 H9           4.2040     2.8280     1.4180 ha         1 GUQ       0.131000
     26 H12          5.7010    -1.2240    -1.1000 ha         1 GUQ       0.124000
     27 H11          7.3850     0.4620    -0.3260 ha         1 GUQ       0.116000
     28 H7          -1.8860    -3.9490    -0.3860 hn         1 GUQ       0.353500
     29 H           -6.0220     0.7230     1.6280 h1         1 GUQ       0.044367
     30 H1          -5.3290    -0.3730     2.8420 h1         1 GUQ       0.044367
     31 H2          -4.8330     1.3320     2.8110 h1         1 GUQ       0.044367
     32 H3          -4.8790     2.6910     0.8460 ha         1 GUQ       0.121000
     33 H4          -3.9500     4.2200    -0.8520 ha         1 GUQ       0.115000
     34 H5          -2.1050     3.4670    -2.3450 ha         1 GUQ       0.121000
     35 H6          -1.1910     1.1660    -2.1400 ha         1 GUQ       0.119000
     36 H8          -0.0680     0.8950     0.4450 hn         1 GUQ       0.523000
     37 O1          -3.8260    -2.2670    -0.8740 o          1 GUQ      -0.468000
     38 O           -4.0390     0.1390     1.2810 os         1 GUQ      -0.333100
@<TRIPOS>BOND
     1     1     2 ar  
     2     1     5 ar  
     3     1    24 1   
     4     2     3 ar  
     5     2    25 1   
     6     3    11 ar  
     7     3    21 1   
     8     4     5 ar  
     9     4    11 ar  
    10     4    26 1   
    11     5    27 1   
    12     6     9 1   
    13     6    19 1   
    14     6    28 1   
    15     7    29 1   
    16     7    30 1   
    17     7    31 1   
    18     7    38 1   
    19     8    12 ar  
    20     8    16 ar  
    21     8    38 1   
    22     9    17 1   
    23     9    37 2   
    24    10    20 1   
    25    10    21 2   
    26    10    23 1   
    27    11    23 1   
    28    12    13 ar  
    29    12    32 1   
    30    13    14 ar  
    31    13    33 1   
    32    14    15 ar  
    33    14    34 1   
    34    15    16 ar  
    35    15    35 1   
    36    16    17 1   
    37    17    18 2   
    38    18    19 1   
    39    18    20 1   
    40    19    22 2   
    41    20    36 1   
@<TRIPOS>SUBSTRUCTURE
     1 GUQ         1 TEMP              0 ****  ****    0 ROOT
