@<TRIPOS>MOLECULE
GUQ
   38    41     1     0     0
SMALL
abcg2


@<TRIPOS>ATOM
      1 C14          6.0980     1.4270     0.4320 ca         1 GUQ      -0.104000
      2 C13          4.8570     1.6660     0.9950 ca         1 GUQ      -0.068000
      3 C12          3.7650     0.9120     0.5680 ca         1 GUQ       0.128400
      4 C16          5.1970    -0.3170    -0.9830 ca         1 GUQ      -0.065000
      5 C15          6.2690     0.4450    -0.5470 ca         1 GUQ      -0.110000
      6 N           -1.4760    -2.8200    -0.0820 ns         1 GUQ      -0.488500
      7 C           -5.3630     0.2810     1.7690 c3         1 GUQ       0.148900
      8 C1          -3.6910     1.0150     0.2550 ca         1 GUQ       0.177100
      9 C10         -2.4200    -1.8720    -0.4390 c          1 GUQ       0.591200
     10 C11          1.7000     0.1880     0.4530 cc         1 GUQ       0.624100
     11 C17          3.9540    -0.0660    -0.4220 ca         1 GUQ      -0.191000
     12 C2          -4.3360     2.2260     0.0130 ca         1 GUQ      -0.202000
     13 C3          -3.7720     3.1470    -0.8590 ca         1 GUQ      -0.055000
     14 C4          -2.5690     2.8840    -1.4970 ca         1 GUQ      -0.151000
     15 C5          -1.9310     1.6750    -1.2610 ca         1 GUQ      -0.056000
     16 C6          -2.4830     0.7290    -0.4020 ca         1 GUQ      -0.092800
     17 C7          -1.8070    -0.5430    -0.1700 cc         1 GUQ      -0.134400
     18 C8          -0.5490    -0.7560     0.2490 cd         1 GUQ       0.078800
     19 C9          -0.3280    -2.2390     0.3810 c          1 GUQ       0.566200
     20 N1           0.3560     0.1690     0.6890 nu         1 GUQ      -0.729200
     21 N2           2.4800     1.0280     1.0400 nd         1 GUQ      -0.601100
     22 O2           0.6350    -2.7920     0.8420 o          1 GUQ      -0.468000
     23 S            2.4360    -0.8390    -0.7610 ss         1 GUQ       0.030800
     24 H10          6.9500     2.0110     0.7550 ha         1 GUQ       0.117000
     25 H9           4.7250     2.4240     1.7560 ha         1 GUQ       0.131000
     26 H12          5.3260    -1.0770    -1.7420 ha         1 GUQ       0.124000
     27 H11          7.2490     0.2780    -0.9740 ha         1 GUQ       0.116000
     28 H7          -1.6200    -3.8180    -0.1480 hn         1 GUQ       0.353500
     29 H           -6.1900     0.3800     1.0620 h1         1 GUQ       0.044367
     30 H1          -5.5280    -0.6000     2.3840 h1         1 GUQ       0.044367
     31 H2          -5.3410     1.1630     2.4140 h1         1 GUQ       0.044367
     32 H3          -5.2700     2.4690     0.5020 ha         1 GUQ       0.121000
     33 H4          -4.2840     4.0850    -1.0350 ha         1 GUQ       0.115000
     34 H5          -2.1330     3.6050    -2.1740 ha         1 GUQ       0.121000
     35 H6          -0.9990     1.4470    -1.7630 ha         1 GUQ       0.119000
     36 H8          -0.0180     1.0330     1.0610 hn         1 GUQ       0.523000
     37 O1          -3.4980    -2.1040    -0.9170 o          1 GUQ      -0.468000
     38 O           -4.1270     0.0810     1.1100 os         1 GUQ      -0.333100
@<TRIPOS>BOND
     1     1     2 ar  
     2     1     5 ar  
     3     1    24 1   
     4     2     3 ar  
     5     2    25 1   
     6     3    11 ar  
     7     3    21 1   
     8     4     5 ar  
     9     4    11 ar  
    10     4    26 1   
    11     5    27 1   
    12     6     9 1   
    13     6    19 1   
    14     6    28 1   
    15     7    29 1   
    16     7    30 1   
    17     7    31 1   
    18     7    38 1   
    19     8    12 ar  
    20     8    16 ar  
    21     8    38 1   
    22     9    17 1   
    23     9    37 2   
    24    10    20 1   
    25    10    21 2   
    26    10    23 1   
    27    11    23 1   
    28    12    13 ar  
    29    12    32 1   
    30    13    14 ar  
    31    13    33 1   
    32    14    15 ar  
    33    14    34 1   
    34    15    16 ar  
    35    15    35 1   
    36    16    17 1   
    37    17    18 2   
    38    18    19 1   
    39    18    20 1   
    40    19    22 2   
    41    20    36 1   
@<TRIPOS>SUBSTRUCTURE
     1 GUQ         1 TEMP              0 ****  ****    0 ROOT
