@<TRIPOS>MOLECULE
GUS
   31    31     1     0     0
SMALL
bcc


@<TRIPOS>ATOM
      1 C           -3.8580     1.0750     0.7900 c          1 GUS       0.938600
      2 N           -2.1110    -0.0060    -0.5670 n2         1 GUS      -0.607900
      3 O           -3.0480     1.0880     1.7310 o          1 GUS      -0.814300
      4 CA          -3.2590     0.8610    -0.6390 c3         1 GUS      -0.023500
      5 CB          -4.2600     0.2990    -1.6340 c3         1 GUS      -0.051100
      6 NAA          3.5500     2.2980     0.0200 n2         1 GUS      -0.876100
      7 CAB          4.3330     1.3210     0.2890 c2         1 GUS       0.809100
      8 CAD          2.6260    -0.4950     0.0620 ca         1 GUS       0.108600
      9 CAE          2.4990    -1.8910     0.0260 ca         1 GUS      -0.155000
     10 CAF          1.2750    -2.5060    -0.1460 ca         1 GUS      -0.176000
     11 NAG          5.6820     1.4190     0.5660 nv         1 GUS      -0.964800
     12 CAH          1.4730     0.2630    -0.0890 ca         1 GUS      -0.090000
     13 CAI          0.2270    -0.3480    -0.2620 ca         1 GUS      -0.205900
     14 CAJ          0.1150    -1.7480    -0.2910 ca         1 GUS       0.179100
     15 OAK         -1.0620    -2.3630    -0.4530 oh         1 GUS      -0.539100
     16 CAL         -0.9540     0.4930    -0.4050 ce         1 GUS       0.466800
     17 OXT         -5.0860     1.2630     0.8440 o          1 GUS      -0.814300
     18 HA          -2.9500     1.8630    -0.9770 h1         1 GUS       0.022700
     19 HB          -3.8030     0.1730    -2.6160 hc         1 GUS       0.021700
     20 HBA         -4.6360    -0.6720    -1.3100 hc         1 GUS       0.021700
     21 HBB         -5.1110     0.9680    -1.7430 hc         1 GUS       0.021700
     22 HNAA         4.0380     3.1800     0.1240 hn         1 GUS       0.370400
     23 HNAC         4.6250    -0.6810     0.3620 hn         1 GUS       0.425800
     24 HAE          3.3810    -2.5110     0.1380 ha         1 GUS       0.106000
     25 HAF          1.2150    -3.5870    -0.1680 ha         1 GUS       0.131000
     26 HNAG         5.9970     2.3490     0.7890 hn         1 GUS       0.389800
     27 HNAB         6.0620     0.7400     1.2080 hn         1 GUS       0.389800
     28 HAH          1.5370     1.3410    -0.0810 ha         1 GUS       0.170000
     29 HOAK        -1.7540    -1.6460    -0.5310 ho         1 GUS       0.500000
     30 HAL         -0.7920     1.5750    -0.3750 h4         1 GUS      -0.020200
     31 NAC          3.9060     0.0170     0.2660 nu         1 GUS      -0.734600
@<TRIPOS>BOND
     1     1     3 1   
     2     1     4 1   
     3     1    17 1   
     4     2     4 1   
     5     2    16 2   
     6     4     5 1   
     7     4    18 1   
     8     5    19 1   
     9     5    20 1   
    10     5    21 1   
    11     6     7 2   
    12     6    22 1   
    13     7    11 1   
    14     7    31 1   
    15     8     9 ar  
    16     8    12 ar  
    17     8    31 1   
    18     9    10 ar  
    19     9    24 1   
    20    10    14 ar  
    21    10    25 1   
    22    11    26 1   
    23    11    27 1   
    24    12    13 ar  
    25    12    28 1   
    26    13    14 ar  
    27    13    16 1   
    28    14    15 1   
    29    15    29 1   
    30    16    30 1   
    31    23    31 1   
@<TRIPOS>SUBSTRUCTURE
     1 GUS         1 TEMP              0 ****  ****    0 ROOT
