@<TRIPOS>MOLECULE
GUS
   31    31     1     0     0
SMALL
No Charge or Current Charge


@<TRIPOS>ATOM
      1 C           -3.8210     1.3410     0.7700 c          1 GUS       0.728000
      2 N           -2.1590     0.0430    -0.6890 n2         1 GUS      -0.607900
      3 O           -3.4980     2.4600     1.1470 o          1 GUS      -0.709000
      4 CA          -3.3770     0.8950    -0.6730 c3         1 GUS      -0.023500
      5 CB          -4.5080     0.1650    -1.4350 c3         1 GUS      -0.051100
      6 NAA          4.0010     2.0170    -0.4900 n2         1 GUS      -0.876100
      7 CAB          4.3670     1.2660     0.4330 c2         1 GUS       0.809100
      8 CAD          2.6220    -0.4630     0.2500 ca         1 GUS       0.247000
      9 CAE          2.6240    -1.8090    -0.1480 ca         1 GUS      -0.137000
     10 CAF          1.4400    -2.4130    -0.6040 ca         1 GUS      -0.158000
     11 NAG          5.5580     1.1700     0.9610 nv         1 GUS      -1.075200
     12 CAH          1.4200     0.2700     0.2010 ca         1 GUS      -0.072000
     13 CAI          0.2200    -0.3220    -0.2550 ca         1 GUS      -0.205900
     14 CAJ          0.2450    -1.6770    -0.6600 ca         1 GUS       0.179100
     15 OAK         -0.8820    -2.2930    -1.1060 oh         1 GUS      -0.578100
     16 CAL         -1.0190     0.5180    -0.2840 ce         1 GUS       0.466800
     17 OXT         -4.4620     0.5620     1.4650 o          1 GUS      -0.709000
     18 HA          -3.1700     1.8180    -1.2310 h1         1 GUS       0.022700
     19 HB          -4.2070    -0.0400    -2.4700 hc         1 GUS       0.021700
     20 HBA         -4.7590    -0.7880    -0.9550 hc         1 GUS       0.021700
     21 HBB         -5.4120     0.7860    -1.4630 hc         1 GUS       0.021700
     22 HNAA         4.7350     2.7170    -0.6350 hn         1 GUS       0.370400
     23 HNAC         4.5420    -0.5520     0.9000 hn         1 GUS       0.481000
     24 HAE          3.5420    -2.3910    -0.1080 ha         1 GUS       0.088000
     25 HAF          1.4480    -3.4550    -0.9140 ha         1 GUS       0.113000
     26 HNAG         6.1440     1.9660     0.7480 hn         1 GUS       0.445000
     27 HNAB         5.5110     0.9660     1.9500 hn         1 GUS       0.445000
     28 HAH          1.4230     1.3080     0.5230 ha         1 GUS       0.152000
     29 HOAK        -1.5950    -1.6010    -1.0600 ho         1 GUS       0.539000
     30 HAL         -0.9200     1.5550     0.0430 h4         1 GUS      -0.020200
     31 NAC          3.8040     0.1120     0.7160 nu         1 GUS      -0.928200
@<TRIPOS>BOND
     1     1     3 1   
     2     1     4 1   
     3     1    17 1   
     4     2     4 1   
     5     2    16 2   
     6     4     5 1   
     7     4    18 1   
     8     5    19 1   
     9     5    20 1   
    10     5    21 1   
    11     6     7 2   
    12     6    22 1   
    13     7    11 1   
    14     7    31 1   
    15     8     9 ar  
    16     8    12 ar  
    17     8    31 1   
    18     9    10 ar  
    19     9    24 1   
    20    10    14 ar  
    21    10    25 1   
    22    11    26 1   
    23    11    27 1   
    24    12    13 ar  
    25    12    28 1   
    26    13    14 ar  
    27    13    16 1   
    28    14    15 1   
    29    15    29 1   
    30    16    30 1   
    31    23    31 1   
@<TRIPOS>SUBSTRUCTURE
     1 GUS         1 TEMP              0 ****  ****    0 ROOT
