@<TRIPOS>MOLECULE
GUT
   66    70     1     0     0
SMALL
abcg2


@<TRIPOS>ATOM
      1 C4          -1.9110     4.8000    32.4700 cc         1 GUT       0.119400
      2 C5          -3.1400     5.4020    32.1720 cd         1 GUT      -0.253600
      3 C6          -4.3250     4.8540    32.7590 c          1 GUT       0.599600
      4 N1          -4.0440     3.7710    33.6310 n          1 GUT      -0.341300
      5 N3          -1.7010     3.7570    33.3070 nc         1 GUT      -0.633100
      6 CAY          1.3310    11.2300    27.5590 c6         1 GUT       0.203300
      7 CAZ          1.9430    11.8410    26.3090 c6         1 GUT       0.154300
      8 NBA          3.3850    11.6440    26.2710 n3         1 GUT      -0.715600
      9 CBD          3.9820    12.2850    25.1100 c3         1 GUT       0.151100
     10 CBB          3.6780    10.2180    26.3080 c6         1 GUT       0.154300
     11 CBC          3.1080     9.5790    27.5610 c6         1 GUT       0.203300
     12 NAX          1.6660     9.8150    27.6660 nh         1 GUT      -0.798400
     13 CAU          0.9200     9.0140    28.5270 ca         1 GUT       0.318000
     14 CAV          1.2070     7.6430    28.6790 ca         1 GUT      -0.175000
     15 CAW          0.4270     6.8290    29.4810 ca         1 GUT      -0.058000
     16 CAT         -0.1770     9.5170    29.2540 ca         1 GUT      -0.175000
     17 CAS         -0.9530     8.6930    30.0510 ca         1 GUT      -0.058000
     18 CAR         -0.6800     7.3280    30.1800 ca         1 GUT      -0.075000
     19 CAH         -1.5110     6.4600    31.0090 cc         1 GUT      -0.084000
     20 NAG         -0.9470     5.4390    31.7600 na         1 GUT      -0.101000
     21 C2          -2.7880     3.2980    33.8550 cd         1 GUT       0.509800
     22 CBI         -5.1710     3.1490    34.3460 c3         1 GUT       0.092000
     23 CBJ         -5.5400     3.9140    35.6090 c3         1 GUT      -0.111100
     24 O6          -5.4900     5.2110    32.5820 o          1 GUT      -0.537000
     25 CAI         -2.8810     6.4580    31.2340 cd         1 GUT      -0.024000
     26 CAJ         -3.8560     7.3470    30.5810 ca         1 GUT       0.015000
     27 CAL         -3.8710     7.4590    29.1930 ca         1 GUT      -0.151000
     28 CAP         -4.7550     8.1150    31.3270 ca         1 GUT      -0.103000
     29 CAO         -5.6300     8.9770    30.6830 ca         1 GUT      -0.091000
     30 CAN         -5.6380     9.1020    29.2970 ca         1 GUT      -0.128000
     31 CAM         -4.7470     8.3320    28.5420 ca         1 GUT      -0.029000
     32 NAQ         -4.6710     8.3710    27.1400 ns         1 GUT      -0.142000
     33 CBE         -5.3670     9.1370    26.2520 c          1 GUT       0.604300
     34 OBF         -6.2210     9.9590    26.5750 o          1 GUT      -0.591100
     35 CBG         -4.9890     8.8780    24.8350 ce         1 GUT      -0.301200
     36 CBH         -5.5770     9.5190    23.8300 c2         1 GUT      -0.229000
     37 H1           1.6730    11.7830    28.4470 h1         1 GUT       0.047700
     38 H2           0.2500    11.3400    27.4910 h1         1 GUT       0.047700
     39 H3           1.7290    12.9120    26.3000 h1         1 GUT       0.041450
     40 H4           1.4620    11.3970    25.4190 h1         1 GUT       0.041450
     41 H6           5.0630    12.1430    25.1270 h1         1 GUT       0.033700
     42 H7           3.5950    11.8760    24.1610 h1         1 GUT       0.033700
     43 H8           3.7700    13.3550    25.1310 h1         1 GUT       0.033700
     44 H9           3.2640     9.7070    25.4200 h1         1 GUT       0.041450
     45 H10          4.7600    10.0770    26.2990 h1         1 GUT       0.041450
     46 H11          3.3110     8.5140    27.5260 h1         1 GUT       0.047700
     47 H12          3.6170     9.9910    28.4450 h1         1 GUT       0.047700
     48 H13          2.0270     7.1930    28.1400 ha         1 GUT       0.115500
     49 H14          0.6700     5.7750    29.5390 ha         1 GUT       0.117000
     50 H15         -0.4240    10.5670    29.2170 ha         1 GUT       0.115500
     51 H16         -1.7770     9.1270    30.6000 ha         1 GUT       0.117000
     52 H17          0.0410     5.2530    31.8400 hn         1 GUT       0.362000
     53 H18         -2.7230     2.4660    34.5460 h5         1 GUT       0.048800
     54 H19         -6.0100     3.1100    33.6560 h1         1 GUT       0.062200
     55 H20         -4.8760     2.1280    34.5840 h1         1 GUT       0.062200
     56 H21         -6.3780     3.4210    36.1060 hc         1 GUT       0.048033
     57 H22         -4.6970     3.9430    36.3020 hc         1 GUT       0.048033
     58 H23         -5.8340     4.9360    35.3720 hc         1 GUT       0.048033
     59 H24         -3.1830     6.8650    28.6040 ha         1 GUT       0.113000
     60 H25         -4.7590     8.0360    32.4050 ha         1 GUT       0.122000
     61 H26         -6.3220     9.5730    31.2650 ha         1 GUT       0.115000
     62 H27         -6.3170     9.7780    28.8060 ha         1 GUT       0.148000
     63 H28         -3.9900     7.7440    26.7370 hn         1 GUT       0.149000
     64 H29         -4.2140     8.1430    24.6470 ha         1 GUT       0.177000
     65 H31         -5.3010     9.3280    22.8020 ha         1 GUT       0.178000
     66 H32         -6.3510    10.2530    24.0190 ha         1 GUT       0.178000
@<TRIPOS>BOND
     1     1     2 2   
     2     1     5 1   
     3     1    20 1   
     4     2     3 1   
     5     2    25 1   
     6     3     4 1   
     7     3    24 2   
     8     4    21 1   
     9     4    22 1   
    10     5    21 2   
    11     6     7 1   
    12     6    12 1   
    13     6    37 1   
    14     6    38 1   
    15     7     8 1   
    16     7    39 1   
    17     7    40 1   
    18     8     9 1   
    19     8    10 1   
    20     9    41 1   
    21     9    42 1   
    22     9    43 1   
    23    10    11 1   
    24    10    44 1   
    25    10    45 1   
    26    11    12 1   
    27    11    46 1   
    28    11    47 1   
    29    12    13 1   
    30    13    14 ar  
    31    13    16 ar  
    32    14    15 ar  
    33    14    48 1   
    34    15    18 ar  
    35    15    49 1   
    36    16    17 ar  
    37    16    50 1   
    38    17    18 ar  
    39    17    51 1   
    40    18    19 1   
    41    19    20 1   
    42    19    25 2   
    43    20    52 1   
    44    21    53 1   
    45    22    23 1   
    46    22    54 1   
    47    22    55 1   
    48    23    56 1   
    49    23    57 1   
    50    23    58 1   
    51    25    26 1   
    52    26    27 ar  
    53    26    28 ar  
    54    27    31 ar  
    55    27    59 1   
    56    28    29 ar  
    57    28    60 1   
    58    29    30 ar  
    59    29    61 1   
    60    30    31 ar  
    61    30    62 1   
    62    31    32 1   
    63    32    33 1   
    64    32    63 1   
    65    33    34 2   
    66    33    35 1   
    67    35    36 2   
    68    35    64 1   
    69    36    65 1   
    70    36    66 1   
@<TRIPOS>SUBSTRUCTURE
     1 GUT         1 TEMP              0 ****  ****    0 ROOT
