@<TRIPOS>MOLECULE
GUT
   66    70     1     0     0
SMALL
No Charge or Current Charge


@<TRIPOS>ATOM
      1 C4          -1.8960     4.7360    32.6220 cc         1 GUT       0.119400
      2 C5          -3.0660     5.3550    32.3010 cd         1 GUT      -0.253600
      3 C6          -4.3410     4.8370    32.8410 c          1 GUT       0.599600
      4 N1          -4.1780     3.7640    33.7310 n          1 GUT      -0.341300
      5 N3          -1.7760     3.6780    33.4760 nc         1 GUT      -0.633100
      6 CAY          0.9600    11.1350    27.1990 c6         1 GUT       0.203300
      7 CAZ          1.6300    11.6420    25.8800 c6         1 GUT       0.154300
      8 NBA          3.1230    11.6850    25.9650 n3         1 GUT      -0.715600
      9 CBD          3.7500    12.2060    24.7310 c3         1 GUT       0.151100
     10 CBB          3.6450    10.3390    26.3550 c6         1 GUT       0.154300
     11 CBC          3.0160     9.8040    27.6840 c6         1 GUT       0.203300
     12 NAX          1.5170     9.8220    27.6610 nh         1 GUT      -0.798400
     13 CAU          0.7870     8.9810    28.5330 ca         1 GUT       0.318000
     14 CAV          1.0220     7.5950    28.5270 ca         1 GUT      -0.175000
     15 CAW          0.3010     6.7380    29.3780 ca         1 GUT      -0.058000
     16 CAT         -0.1800     9.5000    29.4150 ca         1 GUT      -0.175000
     17 CAS         -0.9010     8.6480    30.2690 ca         1 GUT      -0.058000
     18 CAR         -0.6780     7.2570    30.2460 ca         1 GUT      -0.075000
     19 CAH         -1.4240     6.3570    31.1270 cc         1 GUT      -0.084000
     20 NAG         -0.8850     5.3360    31.9010 na         1 GUT      -0.101000
     21 C2          -2.9210     3.2470    34.0120 cd         1 GUT       0.509800
     22 CBI         -5.3680     3.1490    34.3620 c3         1 GUT       0.092000
     23 CBJ         -5.6380     3.6960    35.7760 c3         1 GUT      -0.111100
     24 O6          -5.4430     5.2770    32.5460 o          1 GUT      -0.537000
     25 CAI         -2.7820     6.4260    31.3880 cd         1 GUT      -0.024000
     26 CAJ         -3.7630     7.2890    30.6870 ca         1 GUT       0.015000
     27 CAL         -3.6360     7.5550    29.3060 ca         1 GUT      -0.151000
     28 CAP         -4.8200     7.8950    31.3920 ca         1 GUT      -0.103000
     29 CAO         -5.7300     8.7360    30.7330 ca         1 GUT      -0.091000
     30 CAN         -5.5930     8.9910    29.3590 ca         1 GUT      -0.128000
     31 CAM         -4.5360     8.4020    28.6330 ca         1 GUT      -0.029000
     32 NAQ         -4.3190     8.6130    27.2430 ns         1 GUT      -0.142000
     33 CBE         -4.9760     9.3900    26.2990 c          1 GUT       0.604300
     34 OBF         -5.9520    10.0940    26.5320 o          1 GUT      -0.591100
     35 CBG         -4.3760     9.3040    24.9310 ce         1 GUT      -0.301200
     36 CBH         -4.8260     9.9880    23.8490 c2         1 GUT      -0.229000
     37 H1           1.1050    11.8960    27.9800 h1         1 GUT       0.047700
     38 H2          -0.1220    11.0480    27.0220 h1         1 GUT       0.047700
     39 H3           1.2330    12.6420    25.6500 h1         1 GUT       0.041450
     40 H4           1.3200    10.9800    25.0580 h1         1 GUT       0.041450
     41 H6           4.8410    12.2670    24.8470 h1         1 GUT       0.033700
     42 H7           3.5310    11.5540    23.8740 h1         1 GUT       0.033700
     43 H8           3.3780    13.2130    24.5020 h1         1 GUT       0.033700
     44 H9           3.4380     9.6110    25.5570 h1         1 GUT       0.041450
     45 H10          4.7370    10.3760    26.4770 h1         1 GUT       0.041450
     46 H11          3.3930     8.7870    27.8570 h1         1 GUT       0.047700
     47 H12          3.3770    10.4260    28.5170 h1         1 GUT       0.047700
     48 H13          1.7560     7.1730    27.8470 ha         1 GUT       0.115500
     49 H14          0.4910     5.6680    29.3470 ha         1 GUT       0.117000
     50 H15         -0.3720    10.5680    29.4560 ha         1 GUT       0.115500
     51 H16         -1.6350     9.0710    30.9510 ha         1 GUT       0.117000
     52 H17          0.0900     5.0710    31.9400 hn         1 GUT       0.362000
     53 H18         -2.8910     2.4180    34.7090 h5         1 GUT       0.048800
     54 H19         -6.2570     3.3040    33.7370 h1         1 GUT       0.062200
     55 H20         -5.2130     2.0640    34.4260 h1         1 GUT       0.062200
     56 H21         -6.5200     3.2120    36.2090 hc         1 GUT       0.048033
     57 H22         -4.7830     3.5080    36.4360 hc         1 GUT       0.048033
     58 H23         -5.8200     4.7770    35.7420 hc         1 GUT       0.048033
     59 H24         -2.8340     7.0850    28.7430 ha         1 GUT       0.113000
     60 H25         -4.9180     7.7440    32.4630 ha         1 GUT       0.122000
     61 H26         -6.5390     9.2010    31.2930 ha         1 GUT       0.115000
     62 H27         -6.3130     9.6490    28.8830 ha         1 GUT       0.148000
     63 H28         -3.5290     8.1000    26.8740 hn         1 GUT       0.149000
     64 H29         -3.5160     8.6400    24.8340 ha         1 GUT       0.177000
     65 H31         -4.3520     9.8930    22.8710 ha         1 GUT       0.178000
     66 H32         -5.6820    10.6640    23.9070 ha         1 GUT       0.178000
@<TRIPOS>BOND
     1     1     2 2   
     2     1     5 1   
     3     1    20 1   
     4     2     3 1   
     5     2    25 1   
     6     3     4 1   
     7     3    24 2   
     8     4    21 1   
     9     4    22 1   
    10     5    21 2   
    11     6     7 1   
    12     6    12 1   
    13     6    37 1   
    14     6    38 1   
    15     7     8 1   
    16     7    39 1   
    17     7    40 1   
    18     8     9 1   
    19     8    10 1   
    20     9    41 1   
    21     9    42 1   
    22     9    43 1   
    23    10    11 1   
    24    10    44 1   
    25    10    45 1   
    26    11    12 1   
    27    11    46 1   
    28    11    47 1   
    29    12    13 1   
    30    13    14 ar  
    31    13    16 ar  
    32    14    15 ar  
    33    14    48 1   
    34    15    18 ar  
    35    15    49 1   
    36    16    17 ar  
    37    16    50 1   
    38    17    18 ar  
    39    17    51 1   
    40    18    19 1   
    41    19    20 1   
    42    19    25 2   
    43    20    52 1   
    44    21    53 1   
    45    22    23 1   
    46    22    54 1   
    47    22    55 1   
    48    23    56 1   
    49    23    57 1   
    50    23    58 1   
    51    25    26 1   
    52    26    27 ar  
    53    26    28 ar  
    54    27    31 ar  
    55    27    59 1   
    56    28    29 ar  
    57    28    60 1   
    58    29    30 ar  
    59    29    61 1   
    60    30    31 ar  
    61    30    62 1   
    62    31    32 1   
    63    32    33 1   
    64    32    63 1   
    65    33    34 2   
    66    33    35 1   
    67    35    36 2   
    68    35    64 1   
    69    36    65 1   
    70    36    66 1   
@<TRIPOS>SUBSTRUCTURE
     1 GUT         1 TEMP              0 ****  ****    0 ROOT
