@<TRIPOS>MOLECULE
GUU
   57    58     1     0     0
SMALL
abcg2


@<TRIPOS>ATOM
      1 O24         27.5410     0.4830     9.3430 o          1 GUU      -0.524000
      2 C10         32.2520    -2.6030    13.8180 ca         1 GUU       0.158100
      3 C01         34.6450     1.5670    15.0980 ca         1 GUU       0.185300
      4 C02         34.0480     0.3000    15.6350 c3         1 GUU      -0.131700
      5 C03         32.5400     0.4210    15.8330 c3         1 GUU      -0.083100
      6 C04         35.1330     1.6670    13.8120 ca         1 GUU      -0.133900
      7 O05         35.1510     0.6180    12.9390 os         1 GUU      -0.354100
      8 C06         34.0300     0.5290    12.0590 c3         1 GUU       0.150600
      9 C07         34.1180    -0.7880    11.3140 c3         1 GUU      -0.084400
     10 C08         33.9530    -2.0040    12.2050 c3         1 GUU       0.168600
     11 O09         32.6030    -2.0480    12.6410 os         1 GUU      -0.367100
     12 C11         33.1450    -3.1960    14.7060 ca         1 GUU      -0.201000
     13 C12         32.6910    -3.6840    15.9260 ca         1 GUU      -0.068000
     14 C13         31.3510    -3.6040    16.2620 ca         1 GUU      -0.149000
     15 C14         30.8820    -2.5540    14.1240 ca         1 GUU      -0.125300
     16 C15         30.4610    -3.0500    15.3500 ca         1 GUU      -0.070000
     17 C16         29.8820    -1.9990    13.1470 c3         1 GUU      -0.008100
     18 C17         29.8560    -0.4670    13.1040 c3         1 GUU      -0.154400
     19 C18         28.7870     0.0220    12.1580 c          1 GUU       0.631100
     20 O19         27.6380    -0.3570    12.2050 o          1 GUU      -0.558100
     21 N20         29.2050     0.9450    11.2300 ns         1 GUU      -0.588300
     22 S21         28.2270     1.5710    10.0090 s6         1 GUU       1.216800
     23 O22         29.1090     2.4300     9.2420 o          1 GUU      -0.524000
     24 C23         27.0490     2.5690    10.8790 c3         1 GUU      -0.359100
     25 C25         35.6700     2.9150    13.4230 ca         1 GUU       0.397900
     26 N26         35.6840     3.9450    14.2590 nb         1 GUU      -0.322000
     27 C27         35.1780     3.7440    15.4770 ca         1 GUU       0.405900
     28 N28         34.6680     2.6090    15.9390 nb         1 GUU      -0.280000
     29 N29         35.2360     4.7940    16.3380 nv         1 GUU      -1.048900
     30 N30         36.1610     3.0990    12.1810 nv         1 GUU      -1.060900
     31 H021        34.5230     0.0790    16.5940 hc         1 GUU       0.061200
     32 H022        34.2650    -0.5390    14.9760 hc         1 GUU       0.061200
     33 H031        32.1240    -0.5220    16.1860 hc         1 GUU       0.037033
     34 H033        32.2980     1.1980    16.5580 hc         1 GUU       0.037033
     35 H032        32.0410     0.6700    14.8950 hc         1 GUU       0.037033
     36 H062        33.0970     0.5950    12.6290 h1         1 GUU       0.035200
     37 H061        34.0370     1.3620    11.3480 h1         1 GUU       0.035200
     38 H072        33.3620    -0.7970    10.5250 hc         1 GUU       0.062700
     39 H071        35.0860    -0.8570    10.8110 hc         1 GUU       0.062700
     40 H082        34.1900    -2.9220    11.6570 h1         1 GUU       0.047700
     41 H081        34.6470    -1.9380    13.0450 h1         1 GUU       0.047700
     42 H111        34.1960    -3.2870    14.4700 ha         1 GUU       0.119000
     43 H121        33.4010    -4.1330    16.6090 ha         1 GUU       0.114000
     44 H131        30.9960    -3.9830    17.2120 ha         1 GUU       0.118000
     45 H151        29.4040    -3.0070    15.5910 ha         1 GUU       0.116000
     46 H161        30.0820    -2.3820    12.1430 hc         1 GUU       0.063200
     47 H162        28.8910    -2.3580    13.4240 hc         1 GUU       0.063200
     48 H172        29.6160    -0.0750    14.0970 hc         1 GUU       0.068200
     49 H171        30.8350    -0.0720    12.8360 hc         1 GUU       0.068200
     50 H201        30.1620     1.2800    11.2320 hn         1 GUU       0.346500
     51 H233        26.4150     3.0420    10.1290 h1         1 GUU       0.109033
     52 H232        26.4470     1.9420    11.5310 h1         1 GUU       0.109033
     53 H231        27.5800     3.3250    11.4510 h1         1 GUU       0.109033
     54 H292        35.3750     5.7100    15.9470 hn         1 GUU       0.485500
     55 H291        34.6550     4.7520    17.1570 hn         1 GUU       0.485500
     56 H301        36.6990     3.9330    12.0110 hn         1 GUU       0.489500
     57 H302        36.4060     2.2980    11.6240 hn         1 GUU       0.489500
@<TRIPOS>BOND
     1     1    22 2   
     2     2    11 1   
     3     2    12 ar  
     4     2    15 ar  
     5     3     4 1   
     6     3     6 ar  
     7     3    28 ar  
     8     4     5 1   
     9     4    31 1   
    10     4    32 1   
    11     5    33 1   
    12     5    34 1   
    13     5    35 1   
    14     6     7 1   
    15     6    25 ar  
    16     7     8 1   
    17     8     9 1   
    18     8    36 1   
    19     8    37 1   
    20     9    10 1   
    21     9    38 1   
    22     9    39 1   
    23    10    11 1   
    24    10    40 1   
    25    10    41 1   
    26    12    13 ar  
    27    12    42 1   
    28    13    14 ar  
    29    13    43 1   
    30    14    16 ar  
    31    14    44 1   
    32    15    16 ar  
    33    15    17 1   
    34    16    45 1   
    35    17    18 1   
    36    17    46 1   
    37    17    47 1   
    38    18    19 1   
    39    18    48 1   
    40    18    49 1   
    41    19    20 2   
    42    19    21 1   
    43    21    22 1   
    44    21    50 1   
    45    22    23 2   
    46    22    24 1   
    47    24    51 1   
    48    24    52 1   
    49    24    53 1   
    50    25    26 ar  
    51    25    30 1   
    52    26    27 ar  
    53    27    28 ar  
    54    27    29 1   
    55    29    54 1   
    56    29    55 1   
    57    30    56 1   
    58    30    57 1   
@<TRIPOS>SUBSTRUCTURE
     1 GUU         1 TEMP              0 ****  ****    0 ROOT
