@<TRIPOS>MOLECULE
GUU
   57    58     1     0     0
SMALL
No Charge or Current Charge


@<TRIPOS>ATOM
      1 O24         28.3620     2.4280    10.2410 o          1 GUU      -0.524000
      2 C10         32.1640    -2.9800    13.7600 ca         1 GUU       0.158100
      3 C01         34.1470     1.6520    14.8290 ca         1 GUU       0.185300
      4 C02         34.7930     0.6350    15.7650 c3         1 GUU      -0.131700
      5 C03         33.8040    -0.4650    16.2000 c3         1 GUU      -0.083100
      6 C04         34.1050     1.4710    13.4250 ca         1 GUU      -0.133900
      7 O05         34.6950     0.3290    12.8840 os         1 GUU      -0.354100
      8 C06         34.3530    -0.2270    11.6000 c3         1 GUU       0.150600
      9 C07         34.8710    -1.6790    11.5510 c3         1 GUU      -0.084400
     10 C08         34.3500    -2.5690    12.6980 c3         1 GUU       0.168600
     11 O09         32.9160    -2.4670    12.7230 os         1 GUU      -0.367100
     12 C11         32.7020    -3.9180    14.6690 ca         1 GUU      -0.201000
     13 C12         31.9190    -4.4060    15.7280 ca         1 GUU      -0.068000
     14 C13         30.5980    -3.9600    15.8850 ca         1 GUU      -0.149000
     15 C14         30.8320    -2.5320    13.9160 ca         1 GUU      -0.125300
     16 C15         30.0570    -3.0280    14.9840 ca         1 GUU      -0.070000
     17 C16         30.2200    -1.5010    12.9680 c3         1 GUU      -0.008100
     18 C17         30.5270    -0.0470    13.4020 c3         1 GUU      -0.154400
     19 C18         29.6470     0.9610    12.6570 c          1 GUU       0.631100
     20 O19         28.4510     1.0500    12.8820 o          1 GUU      -0.558100
     21 N20         30.2900     1.7770    11.7810 ns         1 GUU      -0.588300
     22 S21         29.6140     2.9470    10.8010 s6         1 GUU       1.216800
     23 O22         30.6710     3.4360     9.9100 o          1 GUU      -0.524000
     24 C23         29.2140     4.2550    11.9460 c3         1 GUU      -0.359100
     25 C25         33.4260     2.4830    12.6900 ca         1 GUU       0.397900
     26 N26         32.8530     3.5350    13.2820 nb         1 GUU      -0.322000
     27 C27         32.9630     3.5910    14.6110 ca         1 GUU       0.405900
     28 N28         33.5700     2.7180    15.4210 nb         1 GUU      -0.280000
     29 N29         32.3900     4.6580    15.2090 nv         1 GUU      -1.048900
     30 N30         33.2810     2.5020    11.3380 nv         1 GUU      -1.060900
     31 H021        35.1830     1.1360    16.6610 hc         1 GUU       0.061200
     32 H022        35.6590     0.1680    15.2830 hc         1 GUU       0.061200
     33 H031        34.3030    -1.2030    16.8380 hc         1 GUU       0.037033
     34 H033        32.9660    -0.0340    16.7600 hc         1 GUU       0.037033
     35 H032        33.3980    -0.9840    15.3240 hc         1 GUU       0.037033
     36 H062        33.2650    -0.2320    11.4560 h1         1 GUU       0.035200
     37 H061        34.8140     0.3470    10.7870 h1         1 GUU       0.035200
     38 H072        34.5800    -2.1260    10.5930 hc         1 GUU       0.062700
     39 H071        35.9670    -1.6720    11.5740 hc         1 GUU       0.062700
     40 H082        34.6700    -3.6060    12.5360 h1         1 GUU       0.047700
     41 H081        34.7770    -2.2180    13.6470 h1         1 GUU       0.047700
     42 H111        33.7200    -4.2800    14.5680 ha         1 GUU       0.119000
     43 H121        32.3350    -5.1290    16.4270 ha         1 GUU       0.114000
     44 H131        29.9920    -4.3360    16.7060 ha         1 GUU       0.118000
     45 H151        29.0330    -2.6850    15.1210 ha         1 GUU       0.116000
     46 H161        30.5710    -1.6560    11.9400 hc         1 GUU       0.063200
     47 H162        29.1320    -1.6440    12.9320 hc         1 GUU       0.063200
     48 H172        30.3120     0.0440    14.4730 hc         1 GUU       0.068200
     49 H171        31.5870     0.1580    13.2260 hc         1 GUU       0.068200
     50 H201        31.2910     1.7210    11.6630 hn         1 GUU       0.346500
     51 H233        28.7800     5.0750    11.3670 h1         1 GUU       0.109033
     52 H232        28.4960     3.8540    12.6680 h1         1 GUU       0.109033
     53 H231        30.1450     4.5600    12.4350 h1         1 GUU       0.109033
     54 H292        31.7610     5.2430    14.6660 hn         1 GUU       0.485500
     55 H291        32.2650     4.6480    16.2180 hn         1 GUU       0.485500
     56 H301        32.9560     3.3740    10.9260 hn         1 GUU       0.489500
     57 H302        33.9820     2.0140    10.7920 hn         1 GUU       0.489500
@<TRIPOS>BOND
     1     1    22 2   
     2     2    11 1   
     3     2    12 ar  
     4     2    15 ar  
     5     3     4 1   
     6     3     6 ar  
     7     3    28 ar  
     8     4     5 1   
     9     4    31 1   
    10     4    32 1   
    11     5    33 1   
    12     5    34 1   
    13     5    35 1   
    14     6     7 1   
    15     6    25 ar  
    16     7     8 1   
    17     8     9 1   
    18     8    36 1   
    19     8    37 1   
    20     9    10 1   
    21     9    38 1   
    22     9    39 1   
    23    10    11 1   
    24    10    40 1   
    25    10    41 1   
    26    12    13 ar  
    27    12    42 1   
    28    13    14 ar  
    29    13    43 1   
    30    14    16 ar  
    31    14    44 1   
    32    15    16 ar  
    33    15    17 1   
    34    16    45 1   
    35    17    18 1   
    36    17    46 1   
    37    17    47 1   
    38    18    19 1   
    39    18    48 1   
    40    18    49 1   
    41    19    20 2   
    42    19    21 1   
    43    21    22 1   
    44    21    50 1   
    45    22    23 2   
    46    22    24 1   
    47    24    51 1   
    48    24    52 1   
    49    24    53 1   
    50    25    26 ar  
    51    25    30 1   
    52    26    27 ar  
    53    27    28 ar  
    54    27    29 1   
    55    29    54 1   
    56    29    55 1   
    57    30    56 1   
    58    30    57 1   
@<TRIPOS>SUBSTRUCTURE
     1 GUU         1 TEMP              0 ****  ****    0 ROOT
