@<TRIPOS>MOLECULE
GUV
   32    33     1     0     0
SMALL
abcg2


@<TRIPOS>ATOM
      1 N1           4.3930    -1.0280     0.1160 nb         1 GUV      -0.182000
      2 N3          -2.8250     0.4440    -0.3110 ns         1 GUV      -0.167000
      3 C4           3.2810     1.0530     0.4220 ca         1 GUV      -0.218000
      4 C5           2.0930     0.4450     0.0240 cp         1 GUV       0.191500
      5 C6           0.8090     1.1760    -0.0520 cp         1 GUV      -0.135500
      6 C7           0.7760     2.5700    -0.0510 ca         1 GUV      -0.116000
      7 C8          -0.4430     3.2230    -0.1370 ca         1 GUV      -0.093000
      8 C10         -1.6060     1.1090    -0.1970 ca         1 GUV      -0.014000
      9 C13         -4.8870    -2.4820     0.3580 c3         1 GUV       0.108300
     10 C2           3.2150    -1.5310    -0.2410 ca         1 GUV       0.145300
     11 C3           4.4100     0.2580     0.4460 ca         1 GUV       0.109900
     12 N2           2.0800    -0.8470    -0.2990 nb         1 GUV      -0.187000
     13 C9          -1.6250     2.5060    -0.2000 ca         1 GUV      -0.155000
     14 C11         -0.3790     0.4520    -0.1380 ca         1 GUV      -0.079000
     15 C12         -3.1300    -0.8060     0.1810 c          1 GUV       0.655100
     16 O1          -2.3310    -1.5070     0.7850 o          1 GUV      -0.614100
     17 N4          -4.4040    -1.1860    -0.0540 ns         1 GUV      -0.525900
     18 H1          -3.6010     1.0230    -0.5960 hn         1 GUV       0.142000
     19 H2           3.3390     2.0900     0.7140 ha         1 GUV       0.133000
     20 H3           1.6840     3.1550    -0.0080 ha         1 GUV       0.115000
     21 H4          -0.4760     4.3040    -0.1480 ha         1 GUV       0.114000
     22 H5          -4.7650    -2.6300     1.4310 h1         1 GUV       0.041033
     23 H6          -5.9480    -2.5350     0.1310 h1         1 GUV       0.041033
     24 H7          -4.3850    -3.3010    -0.1600 h1         1 GUV       0.041033
     25 H8           2.8200    -3.5570     0.2890 hc         1 GUV       0.059700
     26 H9           2.4400    -3.1700    -1.3820 hc         1 GUV       0.059700
     27 H10          4.1300    -3.3640    -0.8710 hc         1 GUV       0.059700
     28 H11          5.3660     0.6730     0.7440 h4         1 GUV       0.022100
     29 H12         -2.5710     3.0320    -0.2530 ha         1 GUV       0.108000
     30 H13         -0.3280    -0.6240    -0.1640 ha         1 GUV       0.165000
     31 H14         -4.9830    -0.6450    -0.6740 hn         1 GUV       0.310500
     32 C1           3.1530    -2.9860    -0.5810 c3         1 GUV      -0.134400
@<TRIPOS>BOND
     1     1    10 ar  
     2     1    11 ar  
     3     2     8 1   
     4     2    15 1   
     5     2    18 1   
     6     3     4 ar  
     7     3    11 ar  
     8     3    19 1   
     9     4     5 1   
    10     4    12 ar  
    11     5     6 ar  
    12     5    14 ar  
    13     6     7 ar  
    14     6    20 1   
    15     7    13 ar  
    16     7    21 1   
    17     8    13 ar  
    18     8    14 ar  
    19     9    17 1   
    20     9    22 1   
    21     9    23 1   
    22     9    24 1   
    23    10    12 ar  
    24    10    32 1   
    25    11    28 1   
    26    13    29 1   
    27    14    30 1   
    28    15    16 2   
    29    15    17 1   
    30    17    31 1   
    31    25    32 1   
    32    26    32 1   
    33    27    32 1   
@<TRIPOS>SUBSTRUCTURE
     1 GUV         1 TEMP              0 ****  ****    0 ROOT
