@<TRIPOS>MOLECULE
GUV
   32    33     1     0     0
SMALL
No Charge or Current Charge


@<TRIPOS>ATOM
      1 N1           4.5720    -0.9740     0.1740 nb         1 GUV      -0.182000
      2 N3          -2.8770     0.4050    -0.0400 ns         1 GUV      -0.167000
      3 C4           3.3760     1.0930     0.4170 ca         1 GUV      -0.218000
      4 C5           2.1770     0.4410     0.0310 cp         1 GUV       0.191500
      5 C6           0.8510     1.1470    -0.0630 cp         1 GUV      -0.135500
      6 C7           0.7760     2.5560    -0.2190 ca         1 GUV      -0.116000
      7 C8          -0.4610     3.2120    -0.3070 ca         1 GUV      -0.093000
      8 C10         -1.6260     1.0800    -0.0950 ca         1 GUV      -0.014000
      9 C13         -5.2030    -2.4540     0.2110 c3         1 GUV       0.108300
     10 C2           3.3910    -1.5210    -0.1800 ca         1 GUV       0.145300
     11 C3           4.5600     0.3390     0.4740 ca         1 GUV       0.109900
     12 N2           2.2070    -0.8780    -0.2580 nb         1 GUV      -0.187000
     13 C9          -1.6540     2.4770    -0.2440 ca         1 GUV      -0.155000
     14 C11         -0.3760     0.4260    -0.0070 ca         1 GUV      -0.079000
     15 C12         -3.2100    -0.9350     0.0790 c          1 GUV       0.655100
     16 O1          -2.4140    -1.8590     0.1610 o          1 GUV      -0.614100
     17 N4          -4.5690    -1.1390     0.0950 ns         1 GUV      -0.525900
     18 H1          -3.6720     1.0260    -0.0980 hn         1 GUV       0.142000
     19 H2           3.3940     2.1460     0.6800 ha         1 GUV       0.133000
     20 H3           1.6810     3.1530    -0.2880 ha         1 GUV       0.115000
     21 H4          -0.4950     4.2920    -0.4290 ha         1 GUV       0.114000
     22 H5          -4.8990    -2.9300     1.1530 h1         1 GUV       0.041033
     23 H6          -6.2940    -2.3380     0.2000 h1         1 GUV       0.041033
     24 H7          -4.8980    -3.0870    -0.6320 h1         1 GUV       0.041033
     25 H8           3.2300    -3.6020     0.3970 hc         1 GUV       0.059700
     26 H9           2.5980    -3.2580    -1.2210 hc         1 GUV       0.059700
     27 H10          4.3440    -3.3170    -0.9510 hc         1 GUV       0.059700
     28 H11          5.5080     0.7890     0.7660 h4         1 GUV       0.022100
     29 H12         -2.6060     2.9990    -0.3140 ha         1 GUV       0.108000
     30 H13         -0.3380    -0.6510     0.1180 ha         1 GUV       0.165000
     31 H14         -5.1620    -0.3200     0.0230 hn         1 GUV       0.310500
     32 C1           3.3910    -3.0040    -0.5070 c3         1 GUV      -0.134400
@<TRIPOS>BOND
     1     1    10 ar  
     2     1    11 ar  
     3     2     8 1   
     4     2    15 1   
     5     2    18 1   
     6     3     4 ar  
     7     3    11 ar  
     8     3    19 1   
     9     4     5 1   
    10     4    12 ar  
    11     5     6 ar  
    12     5    14 ar  
    13     6     7 ar  
    14     6    20 1   
    15     7    13 ar  
    16     7    21 1   
    17     8    13 ar  
    18     8    14 ar  
    19     9    17 1   
    20     9    22 1   
    21     9    23 1   
    22     9    24 1   
    23    10    12 ar  
    24    10    32 1   
    25    11    28 1   
    26    13    29 1   
    27    14    30 1   
    28    15    16 2   
    29    15    17 1   
    30    17    31 1   
    31    25    32 1   
    32    26    32 1   
    33    27    32 1   
@<TRIPOS>SUBSTRUCTURE
     1 GUV         1 TEMP              0 ****  ****    0 ROOT
