@<TRIPOS>MOLECULE
GUW
   36    38     1     0     0
SMALL
No Charge or Current Charge


@<TRIPOS>ATOM
      1 C4          -3.1020     1.5950     0.3490 ca         1 GUW       0.129500
      2 C5          -2.4380     0.4010     0.1650 ca         1 GUW      -0.201800
      3 C6          -3.1410    -0.6960    -0.3860 ca         1 GUW       0.403300
      4 N1          -4.4660    -0.5720    -0.6400 nb         1 GUW      -0.306000
      5 N3          -4.4150     1.7280     0.0950 nb         1 GUW      -0.212000
      6 CAH         -0.8870     1.9960     0.8350 cc         1 GUW      -0.158100
      7 CAI         -1.0470     0.6490     0.5440 cd         1 GUW      -0.040400
      8 CAK          0.0740    -0.3190     0.5290 ca         1 GUW       0.013200
      9 CAL          1.3820     0.1300     0.2410 ca         1 GUW      -0.130000
     10 CAM          2.4800    -0.7600     0.2500 ca         1 GUW      -0.021000
     11 CAN          2.2580    -2.1110     0.5660 ca         1 GUW      -0.169000
     12 CAO          0.9710    -2.5630     0.8930 ca         1 GUW      -0.085000
     13 CAP         -0.1100    -1.6700     0.8840 ca         1 GUW      -0.110000
     14 CAR         -3.1810    -2.9740    -1.3100 c3         1 GUW       0.158900
     15 CAS          4.3960     0.8690    -0.2900 c          1 GUW       0.609300
     16 CAT          5.8580     0.7940    -0.6000 ce         1 GUW      -0.307200
     17 CAV          6.6570     1.8720    -0.8010 c2         1 GUW      -0.225000
     18 NAG         -2.1810     2.5420     0.7560 na         1 GUW      -0.307400
     19 NAQ          3.8130    -0.3690    -0.0570 ns         1 GUW      -0.142000
     20 OAJ         -2.4780    -1.8470    -0.7500 os         1 GUW      -0.444300
     21 OAU          3.8020     1.9390    -0.2380 o          1 GUW      -0.587100
     22 C2          -5.0370     0.6230    -0.3700 ca         1 GUW       0.174900
     23 H1          -0.0100     2.5700     1.1250 h4         1 GUW       0.226000
     24 H2           1.5250     1.1710    -0.0220 ha         1 GUW       0.147000
     25 H3           3.0890    -2.8130     0.5780 ha         1 GUW       0.107000
     26 H4           0.8130    -3.6040     1.1680 ha         1 GUW       0.112000
     27 H5          -1.0850    -2.0250     1.2040 ha         1 GUW       0.123000
     28 H6          -3.6770    -2.6990    -2.2500 h1         1 GUW       0.049367
     29 H7          -2.4810    -3.7920    -1.5220 h1         1 GUW       0.049367
     30 H8          -3.9400    -3.3480    -0.6110 h1         1 GUW       0.049367
     31 H9           6.2800    -0.2100    -0.6470 ha         1 GUW       0.177000
     32 H11          6.2740     2.8940    -0.7550 ha         1 GUW       0.177500
     33 H12          7.7220     1.7660    -1.0180 ha         1 GUW       0.177500
     34 H14         -2.4190     3.5110     0.9470 hn         1 GUW       0.366000
     35 H15          4.4590    -1.1460    -0.1180 hn         1 GUW       0.149000
     36 H16         -6.1030     0.7140    -0.5770 h5         1 GUW       0.048100
@<TRIPOS>BOND
     1     1     2 ar  
     2     1     5 ar  
     3     1    18 1   
     4     2     3 ar  
     5     2     7 1   
     6     3     4 ar  
     7     3    20 1   
     8     4    22 ar  
     9     5    22 ar  
    10     6     7 2   
    11     6    18 1   
    12     6    23 1   
    13     7     8 1   
    14     8     9 ar  
    15     8    13 ar  
    16     9    10 ar  
    17     9    24 1   
    18    10    11 ar  
    19    10    19 1   
    20    11    12 ar  
    21    11    25 1   
    22    12    13 ar  
    23    12    26 1   
    24    13    27 1   
    25    14    20 1   
    26    14    28 1   
    27    14    29 1   
    28    14    30 1   
    29    15    16 1   
    30    15    19 1   
    31    15    21 2   
    32    16    17 2   
    33    16    31 1   
    34    17    32 1   
    35    17    33 1   
    36    18    34 1   
    37    19    35 1   
    38    22    36 1   
@<TRIPOS>SUBSTRUCTURE
     1 GUW         1 TEMP              0 ****  ****    0 ROOT
