@<TRIPOS>MOLECULE
GUW
   36    38     1     0     0
SMALL
abcg2


@<TRIPOS>ATOM
      1 C4          -3.0290     1.5300     0.3370 ca         1 GUW       0.129500
      2 C5          -2.3270     0.3320     0.1240 ca         1 GUW      -0.201800
      3 C6          -3.0810    -0.6630    -0.5170 ca         1 GUW       0.403300
      4 N1          -4.3460    -0.4600    -0.8240 nb         1 GUW      -0.306000
      5 N3          -4.3060     1.7560     0.0290 nb         1 GUW      -0.212000
      6 CAH         -0.9510     1.8250     1.0470 cc         1 GUW      -0.158100
      7 CAI         -0.9850     0.5340     0.5900 cd         1 GUW      -0.040400
      8 CAK          0.1480    -0.3960     0.6290 ca         1 GUW       0.013200
      9 CAL          1.4190     0.0710     0.2850 ca         1 GUW      -0.130000
     10 CAM          2.5270    -0.7720     0.3630 ca         1 GUW      -0.021000
     11 CAN          2.3490    -2.0950     0.7760 ca         1 GUW      -0.169000
     12 CAO          1.0890    -2.5540     1.1110 ca         1 GUW      -0.085000
     13 CAP         -0.0130    -1.7160     1.0450 ca         1 GUW      -0.110000
     14 CAR         -3.2710    -2.8110    -1.4760 c3         1 GUW       0.158900
     15 CAS          4.3040     0.8090    -0.3930 c          1 GUW       0.609300
     16 CAT          5.7710     0.8030    -0.6220 ce         1 GUW      -0.307200
     17 CAV          6.4080     1.8820    -1.0630 c2         1 GUW      -0.225000
     18 NAG         -2.1740     2.4150     0.8960 na         1 GUW      -0.307400
     19 NAQ          3.8320    -0.3880     0.0430 ns         1 GUW      -0.142000
     20 OAJ         -2.5010    -1.8100    -0.8190 os         1 GUW      -0.444300
     21 OAU          3.6090     1.7940    -0.5830 o          1 GUW      -0.587100
     22 C2          -4.8940     0.7250    -0.5330 ca         1 GUW       0.174900
     23 H1          -0.1350     2.3650     1.5000 h4         1 GUW       0.226000
     24 H2           1.5290     1.0890    -0.0540 ha         1 GUW       0.147000
     25 H3           3.2010    -2.7630     0.8330 ha         1 GUW       0.107000
     26 H4           0.9670    -3.5790     1.4370 ha         1 GUW       0.112000
     27 H5          -0.9870    -2.0820     1.3360 ha         1 GUW       0.123000
     28 H6          -3.6170    -2.4740    -2.4530 h1         1 GUW       0.049367
     29 H7          -2.6050    -3.6600    -1.6010 h1         1 GUW       0.049367
     30 H8          -4.1330    -3.1110    -0.8800 h1         1 GUW       0.049367
     31 H9           6.3200    -0.1100    -0.4190 ha         1 GUW       0.177000
     32 H11          5.8870     2.8070    -1.2740 ha         1 GUW       0.177500
     33 H12          7.4760     1.8710    -1.2280 ha         1 GUW       0.177500
     34 H14         -2.4070     3.3570     1.1670 hn         1 GUW       0.366000
     35 H15          4.5200    -1.1160     0.1570 hn         1 GUW       0.149000
     36 H16         -5.9380     0.8410    -0.8000 h5         1 GUW       0.048100
@<TRIPOS>BOND
     1     1     2 ar  
     2     1     5 ar  
     3     1    18 1   
     4     2     3 ar  
     5     2     7 1   
     6     3     4 ar  
     7     3    20 1   
     8     4    22 ar  
     9     5    22 ar  
    10     6     7 2   
    11     6    18 1   
    12     6    23 1   
    13     7     8 1   
    14     8     9 ar  
    15     8    13 ar  
    16     9    10 ar  
    17     9    24 1   
    18    10    11 ar  
    19    10    19 1   
    20    11    12 ar  
    21    11    25 1   
    22    12    13 ar  
    23    12    26 1   
    24    13    27 1   
    25    14    20 1   
    26    14    28 1   
    27    14    29 1   
    28    14    30 1   
    29    15    16 1   
    30    15    19 1   
    31    15    21 2   
    32    16    17 2   
    33    16    31 1   
    34    17    32 1   
    35    17    33 1   
    36    18    34 1   
    37    19    35 1   
    38    22    36 1   
@<TRIPOS>SUBSTRUCTURE
     1 GUW         1 TEMP              0 ****  ****    0 ROOT
