@<TRIPOS>MOLECULE
GUX
   49    50     1     0     0
SMALL
No Charge or Current Charge


@<TRIPOS>ATOM
      1 O7           3.9280     2.9240    -0.1260 o          1 GUX      -0.720500
      2 C6           4.7740     2.3400     0.5360 c          1 GUX       0.730000
      3 O6           5.4180     2.9040     1.4100 o          1 GUX      -0.720500
      4 C5           4.7070     0.8030     0.6170 c6         1 GUX      -0.207700
      5 C            3.3480     0.3070     1.1610 cx         1 GUX       0.153500
      6 N1           2.1600     0.2200     0.2830 np         1 GUX      -0.650600
      7 C1           2.8200    -1.0430     0.7050 cx         1 GUX       0.029500
      8 C2           3.5300    -1.8310    -0.4210 c6         1 GUX       0.213300
      9 O            3.4310    -3.2460    -0.1750 oh         1 GUX      -0.739000
     10 C3           5.0210    -1.4200    -0.5850 c6         1 GUX       0.132300
     11 O3           5.6040    -2.0500    -1.7410 oh         1 GUX      -0.692000
     12 C4           5.1430     0.1290    -0.7080 c6         1 GUX       0.173300
     13 O4           6.5040     0.4820    -1.0290 oh         1 GUX      -0.804000
     14 C7           0.8590     0.5460     0.9010 c3         1 GUX       0.154800
     15 C8          -0.3000    -0.0800     0.0970 c3         1 GUX      -0.079400
     16 C9          -1.6880     0.2410     0.6940 c3         1 GUX      -0.074400
     17 C16         -2.8500    -0.3850    -0.1070 c3         1 GUX      -0.074400
     18 C17         -4.2380    -0.0640     0.4900 c3         1 GUX      -0.075400
     19 C18         -5.4000    -0.6890    -0.3110 c3         1 GUX      -0.074400
     20 C19         -6.7880    -0.3680     0.2870 c3         1 GUX      -0.099400
     21 C21         -7.9490    -0.9940    -0.5160 c3         1 GUX       0.157800
     22 N22         -9.2370    -0.6660     0.1090 n2         1 GUX      -0.439200
     23 N25         -9.8310     0.3300    -0.3340 n1         1 GUX       0.231000
     24 N26        -10.3660     1.2960    -0.6100 n1         1 GUX      -0.091000
     25 H2           5.4440     0.5040     1.3760 hc         1 GUX       0.048700
     26 H3           3.1670     0.6020     2.1970 h1         1 GUX       0.075700
     27 H5           2.2940    -1.6620     1.4330 h1         1 GUX       0.073700
     28 H6           3.0090    -1.5880    -1.3600 h1         1 GUX       0.049700
     29 H7           4.0790    -3.6460    -0.8020 ho         1 GUX       0.507000
     30 H8           5.5670    -1.7350     0.3170 h1         1 GUX       0.033700
     31 H9           6.2750    -1.3950    -2.0500 ho         1 GUX       0.462000
     32 H10          4.4710     0.4670    -1.5120 h1         1 GUX       0.050700
     33 H11          7.0250     0.4320    -0.1900 ho         1 GUX       0.579000
     34 H12          0.8160     0.1820     1.9370 h1         1 GUX       0.040700
     35 H13          0.7290     1.6370     0.9260 h1         1 GUX       0.040700
     36 H14         -0.2570     0.2850    -0.9370 hc         1 GUX       0.044200
     37 H15         -0.1660    -1.1680     0.0600 hc         1 GUX       0.044200
     38 H16         -1.7270    -0.1220     1.7290 hc         1 GUX       0.036700
     39 H17         -1.8200     1.3300     0.7310 hc         1 GUX       0.036700
     40 H18         -2.8110    -0.0220    -1.1420 hc         1 GUX       0.037200
     41 H19         -4.2770    -0.4270     1.5250 hc         1 GUX       0.038200
     42 H20         -5.3610    -0.3260    -1.3460 hc         1 GUX       0.038700
     43 H21         -5.2670    -1.7780    -0.3480 hc         1 GUX       0.038700
     44 H22         -6.8280    -0.7320     1.3210 hc         1 GUX       0.047200
     45 H23         -6.9200     0.7210     0.3240 hc         1 GUX       0.047200
     46 H24         -7.9060    -0.6330    -1.5540 h1         1 GUX       0.059200
     47 H25         -7.8130    -2.0830    -0.5460 h1         1 GUX       0.059200
     48 H4          -2.7170    -1.4730    -0.1440 hc         1 GUX       0.037200
     49 H27         -4.3710     1.0250     0.5270 hc         1 GUX       0.038200
@<TRIPOS>BOND
     1     1     2 1   
     2     2     3 1   
     3     2     4 1   
     4     4     5 1   
     5     4    12 1   
     6     4    25 1   
     7     5     6 1   
     8     5     7 1   
     9     5    26 1   
    10     6     7 1   
    11     6    14 1   
    12     7     8 1   
    13     7    27 1   
    14     8     9 1   
    15     8    10 1   
    16     8    28 1   
    17     9    29 1   
    18    10    11 1   
    19    10    12 1   
    20    10    30 1   
    21    11    31 1   
    22    12    13 1   
    23    12    32 1   
    24    13    33 1   
    25    14    15 1   
    26    14    34 1   
    27    14    35 1   
    28    15    16 1   
    29    15    36 1   
    30    15    37 1   
    31    16    17 1   
    32    16    38 1   
    33    16    39 1   
    34    17    18 1   
    35    17    40 1   
    36    17    48 1   
    37    18    19 1   
    38    18    41 1   
    39    18    49 1   
    40    19    20 1   
    41    19    42 1   
    42    19    43 1   
    43    20    21 1   
    44    20    44 1   
    45    20    45 1   
    46    21    22 1   
    47    21    46 1   
    48    21    47 1   
    49    22    23 1   
    50    23    24 3   
@<TRIPOS>SUBSTRUCTURE
     1 GUX         1 TEMP              0 ****  ****    0 ROOT
