@<TRIPOS>MOLECULE
GUX
   49    50     1     0     0
SMALL
abcg2


@<TRIPOS>ATOM
      1 O7           3.7450     2.8670     1.4390 o          1 GUX      -0.720500
      2 C6           4.5940     2.2760     0.7620 c          1 GUX       0.730000
      3 O6           5.5050     2.8230     0.0790 o          1 GUX      -0.720500
      4 C5           4.5870     0.7360     0.7470 c6         1 GUX      -0.207700
      5 C            3.3060     0.1520     1.2690 cx         1 GUX       0.153500
      6 N1           2.1710     0.1490     0.3850 np         1 GUX      -0.650600
      7 C1           2.7730    -1.1210     0.7210 cx         1 GUX       0.029500
      8 C2           3.4640    -1.8490    -0.4150 c6         1 GUX       0.213300
      9 O            3.4590    -3.2280    -0.1090 oh         1 GUX      -0.739000
     10 C3           4.8830    -1.3340    -0.6240 c6         1 GUX       0.132300
     11 O3           5.3550    -1.8960    -1.8290 oh         1 GUX      -0.692000
     12 C4           4.9280     0.1880    -0.6460 c6         1 GUX       0.173300
     13 O4           6.2170     0.5920    -1.0410 oh         1 GUX      -0.804000
     14 C7           0.8790     0.4460     0.9640 c3         1 GUX       0.154800
     15 C8          -0.2460    -0.2000     0.1730 c3         1 GUX      -0.079400
     16 C9          -1.6230     0.2110     0.6770 c3         1 GUX      -0.074400
     17 C16         -2.7620    -0.4740    -0.0670 c3         1 GUX      -0.074400
     18 C17         -4.1380    -0.0290     0.4100 c3         1 GUX      -0.075400
     19 C18         -5.2800    -0.7250    -0.3200 c3         1 GUX      -0.074400
     20 C19         -6.6520    -0.2650     0.1570 c3         1 GUX      -0.099400
     21 C21         -7.7730    -0.9820    -0.5790 c3         1 GUX       0.157800
     22 N22         -9.1100    -0.6120    -0.0930 n2         1 GUX      -0.439200
     23 N25         -9.5050     0.5000    -0.3840 n1         1 GUX       0.231000
     24 N26         -9.9630     1.5060    -0.5990 n1         1 GUX      -0.091000
     25 H2           5.3920     0.4060     1.4210 hc         1 GUX       0.048700
     26 H3           3.1030     0.3390     2.3220 h1         1 GUX       0.075700
     27 H5           2.2260    -1.7630     1.4110 h1         1 GUX       0.073700
     28 H6           2.8920    -1.6570    -1.3360 h1         1 GUX       0.049700
     29 H7           3.8720    -3.6970    -0.8410 ho         1 GUX       0.507000
     30 H8           5.4940    -1.6770     0.2290 h1         1 GUX       0.033700
     31 H9           6.2480    -1.5700    -1.9780 ho         1 GUX       0.462000
     32 H10          4.1730     0.5520    -1.3620 h1         1 GUX       0.050700
     33 H11          6.2350     1.5380    -0.7600 ho         1 GUX       0.579000
     34 H12          0.8170     0.1240     2.0170 h1         1 GUX       0.040700
     35 H13          0.7590     1.5330     0.9650 h1         1 GUX       0.040700
     36 H14         -0.1420     0.0700    -0.8830 hc         1 GUX       0.044200
     37 H15         -0.1460    -1.2890     0.2240 hc         1 GUX       0.044200
     38 H16         -1.7050    -0.0120     1.7460 hc         1 GUX       0.036700
     39 H17         -1.7310     1.2980     0.5860 hc         1 GUX       0.036700
     40 H18         -2.6680    -0.2750    -1.1400 hc         1 GUX       0.037200
     41 H19         -4.2290    -0.2150     1.4850 hc         1 GUX       0.038200
     42 H20         -5.1870    -0.5450    -1.3970 hc         1 GUX       0.038700
     43 H21         -5.1900    -1.8080    -0.1840 hc         1 GUX       0.038700
     44 H22         -6.7520    -0.4460     1.2310 hc         1 GUX       0.047200
     45 H23         -6.7430     0.8160     0.0100 hc         1 GUX       0.047200
     46 H24         -7.6980    -0.8060    -1.6570 h1         1 GUX       0.059200
     47 H25         -7.6990    -2.0570    -0.4220 h1         1 GUX       0.059200
     48 H4          -2.6700    -1.5600     0.0490 hc         1 GUX       0.037200
     49 H27         -4.2330     1.0550     0.2810 hc         1 GUX       0.038200
@<TRIPOS>BOND
     1     1     2 1   
     2     2     3 1   
     3     2     4 1   
     4     4     5 1   
     5     4    12 1   
     6     4    25 1   
     7     5     6 1   
     8     5     7 1   
     9     5    26 1   
    10     6     7 1   
    11     6    14 1   
    12     7     8 1   
    13     7    27 1   
    14     8     9 1   
    15     8    10 1   
    16     8    28 1   
    17     9    29 1   
    18    10    11 1   
    19    10    12 1   
    20    10    30 1   
    21    11    31 1   
    22    12    13 1   
    23    12    32 1   
    24    13    33 1   
    25    14    15 1   
    26    14    34 1   
    27    14    35 1   
    28    15    16 1   
    29    15    36 1   
    30    15    37 1   
    31    16    17 1   
    32    16    38 1   
    33    16    39 1   
    34    17    18 1   
    35    17    40 1   
    36    17    48 1   
    37    18    19 1   
    38    18    41 1   
    39    18    49 1   
    40    19    20 1   
    41    19    42 1   
    42    19    43 1   
    43    20    21 1   
    44    20    44 1   
    45    20    45 1   
    46    21    22 1   
    47    21    46 1   
    48    21    47 1   
    49    22    23 1   
    50    23    24 3   
@<TRIPOS>SUBSTRUCTURE
     1 GUX         1 TEMP              0 ****  ****    0 ROOT
