@<TRIPOS>MOLECULE
GUY
   27    28     1     0     0
SMALL
bcc


@<TRIPOS>ATOM
      1 N1          -2.2760    -0.2670    -0.3780 na         1 GUY      -0.096400
      2 N3          -2.7930    -2.2570    -0.0040 nc         1 GUY      -0.030000
      3 C4          -1.1520    -0.9420    -0.1060 cd         1 GUY       0.526400
      4 C5           1.2700    -1.0030     0.1110 c          1 GUY       0.621600
      5 C6           2.4520    -0.1470     0.0550 cc         1 GUY       0.148200
      6 C7           3.7670    -0.4600     0.2010 cd         1 GUY      -0.167300
      7 C8           4.4790     0.7570     0.0420 cd         1 GUY      -0.280300
      8 C1          -2.9700     3.4060     0.3390 c3         1 GUY      -0.091100
      9 C2          -2.7190     1.9380     0.6460 c3         1 GUY      -0.099400
     10 C3          -2.4970     1.1450    -0.6340 c3         1 GUY       0.053300
     11 N2          -1.4650    -2.1960     0.1230 nc         1 GUY      -0.384000
     12 N4          -3.2890    -1.1270    -0.2960 nd         1 GUY      -0.207800
     13 N5           0.0770    -0.3470    -0.0920 ns         1 GUY      -0.552400
     14 O1           1.3570    -2.1930     0.3180 o          1 GUY      -0.496100
     15 C9           3.5430     1.7140    -0.1860 cc         1 GUY       0.264600
     16 O2           2.3130     1.1770    -0.1800 os         1 GUY      -0.336800
     17 H1           4.1750    -1.4390     0.3960 ha         1 GUY       0.182000
     18 H2           5.5450     0.9050     0.0920 ha         1 GUY       0.171000
     19 H3          -3.1630     3.9630     1.2550 hc         1 GUY       0.040367
     20 H4          -2.1110     3.8640    -0.1530 hc         1 GUY       0.040367
     21 H5          -3.8350     3.5310    -0.3140 hc         1 GUY       0.040367
     22 H6          -1.8490     1.8360     1.3000 hc         1 GUY       0.058700
     23 H7          -3.5700     1.5130     1.1810 hc         1 GUY       0.058700
     24 H8          -1.6450     1.5280    -1.1990 h1         1 GUY       0.068700
     25 H9          -3.3620     1.2130    -1.2910 h1         1 GUY       0.068700
     26 H10          0.1090     0.6460    -0.2710 hn         1 GUY       0.341500
     27 H11          3.6080     2.7750    -0.3630 h4         1 GUY       0.058100
@<TRIPOS>BOND
     1     1     3 1   
     2     1    10 1   
     3     1    12 1   
     4     2    11 1   
     5     2    12 2   
     6     3    11 2   
     7     3    13 1   
     8     4     5 1   
     9     4    13 1   
    10     4    14 2   
    11     5     6 2   
    12     5    16 1   
    13     6     7 1   
    14     6    17 1   
    15     7    15 2   
    16     7    18 1   
    17     8     9 1   
    18     8    19 1   
    19     8    20 1   
    20     8    21 1   
    21     9    10 1   
    22     9    22 1   
    23     9    23 1   
    24    10    24 1   
    25    10    25 1   
    26    13    26 1   
    27    15    16 1   
    28    15    27 1   
@<TRIPOS>SUBSTRUCTURE
     1 GUY         1 TEMP              0 ****  ****    0 ROOT
