@<TRIPOS>MOLECULE
GUY
   27    28     1     0     0
SMALL
No Charge or Current Charge


@<TRIPOS>ATOM
      1 N1          -2.3840    -0.3600    -0.3890 na         1 GUY      -0.125700
      2 N3          -2.8760    -2.3920    -0.0800 nc         1 GUY      -0.030000
      3 C4          -1.2120    -1.0390    -0.1510 cd         1 GUY       0.526400
      4 C5           1.2490    -1.0460     0.1100 c          1 GUY       0.554600
      5 C6           2.3710    -0.0730     0.0630 cc         1 GUY       0.038500
      6 C7           3.6980    -0.3530     0.2540 cd         1 GUY      -0.084000
      7 C8           4.3920     0.8680     0.1200 cd         1 GUY      -0.197000
      8 C1          -2.7600     3.4390     0.3360 c3         1 GUY      -0.091100
      9 C2          -2.5620     1.9370     0.6200 c3         1 GUY      -0.099400
     10 C3          -2.5810     1.0740    -0.6610 c3         1 GUY       0.082600
     11 N2          -1.5080    -2.3070     0.0430 nc         1 GUY      -0.384000
     12 N4          -3.4210    -1.2350    -0.3390 nd         1 GUY      -0.207800
     13 N5           0.0300    -0.4540    -0.1240 ns         1 GUY      -0.485400
     14 O1           1.3930    -2.2400     0.3310 o          1 GUY      -0.496100
     15 C9           3.4660     1.8400    -0.1470 cc         1 GUY       0.154900
     16 O2           2.2080     1.2780    -0.1860 os         1 GUY      -0.248000
     17 H1           4.1250    -1.3290     0.4680 ha         1 GUY       0.164000
     18 H2           5.4630     1.0180     0.2100 ha         1 GUY       0.153000
     19 H3          -2.7430     4.0110     1.2710 hc         1 GUY       0.040367
     20 H4          -1.9630     3.8210    -0.3140 hc         1 GUY       0.040367
     21 H5          -3.7240     3.6170    -0.1570 hc         1 GUY       0.040367
     22 H6          -1.6090     1.7960     1.1440 hc         1 GUY       0.058700
     23 H7          -3.3530     1.5930     1.2980 hc         1 GUY       0.058700
     24 H8          -1.7960     1.4150    -1.3480 h1         1 GUY       0.068700
     25 H9          -3.5440     1.2070    -1.1710 h1         1 GUY       0.068700
     26 H10          0.0850     0.5410    -0.2910 hn         1 GUY       0.341500
     27 H11          3.5550     2.9050    -0.3200 h4         1 GUY       0.058100
@<TRIPOS>BOND
     1     1     3 1   
     2     1    10 1   
     3     1    12 1   
     4     2    11 1   
     5     2    12 2   
     6     3    11 2   
     7     3    13 1   
     8     4     5 1   
     9     4    13 1   
    10     4    14 2   
    11     5     6 2   
    12     5    16 1   
    13     6     7 1   
    14     6    17 1   
    15     7    15 2   
    16     7    18 1   
    17     8     9 1   
    18     8    19 1   
    19     8    20 1   
    20     8    21 1   
    21     9    10 1   
    22     9    22 1   
    23     9    23 1   
    24    10    24 1   
    25    10    25 1   
    26    13    26 1   
    27    15    16 1   
    28    15    27 1   
@<TRIPOS>SUBSTRUCTURE
     1 GUY         1 TEMP              0 ****  ****    0 ROOT
