@<TRIPOS>MOLECULE
GUZ
   21    21     1     0     0
SMALL
No Charge or Current Charge


@<TRIPOS>ATOM
      1 C1          33.9780     1.2920    34.1420 c6         1 GUZ       0.354300
      2 C2          34.5820     0.4150    32.9960 c6         1 GUZ       0.178300
      3 F2          33.5360    -0.0970    32.1850 f          1 GUZ      -0.268000
      4 C3          35.4140    -0.7650    33.5780 c6         1 GUZ       0.137300
      5 O3          36.0820    -1.5230    32.5490 oh         1 GUZ      -0.671000
      6 C4          36.4790    -0.2240    34.5820 c6         1 GUZ       0.134300
      7 O4          37.2320    -1.3210    35.1420 oh         1 GUZ      -0.791000
      8 C5          35.8010     0.6470    35.6800 c6         1 GUZ      -0.018700
      9 C6          36.8690     1.1800    36.6980 c          1 GUZ       0.732000
     10 O6A         37.2090     2.3510    36.5770 o          1 GUZ      -0.702500
     11 O6B         36.8150     0.6830    37.8160 o          1 GUZ      -0.702500
     12 O5          35.0200     1.7170    35.0430 os         1 GUZ      -0.440000
     13 O1          33.0000     0.6030    34.9250 oh         1 GUZ      -0.678000
     14 H1          33.5140     2.1830    33.6900 h2         1 GUZ       0.051700
     15 H2          35.2170     1.0430    32.3570 h1         1 GUZ       0.065700
     16 H3          34.7260    -1.4220    34.1310 h1         1 GUZ       0.055700
     17 HO3         36.8580    -1.9240    33.0060 ho         1 GUZ       0.455000
     18 H4          37.1660     0.4310    34.0230 h1         1 GUZ       0.036700
     19 HO4         36.6790    -1.7340    35.8530 ho         1 GUZ       0.579000
     20 H5          35.1110     0.0140    36.2570 h1         1 GUZ       0.043700
     21 HO1         32.8310     1.1920    35.6890 ho         1 GUZ       0.448000
@<TRIPOS>BOND
     1     1     2 1   
     2     1    12 1   
     3     1    13 1   
     4     1    14 1   
     5     2     3 1   
     6     2     4 1   
     7     2    15 1   
     8     4     5 1   
     9     4     6 1   
    10     4    16 1   
    11     5    17 1   
    12     6     7 1   
    13     6     8 1   
    14     6    18 1   
    15     7    19 1   
    16     8     9 1   
    17     8    12 1   
    18     8    20 1   
    19     9    10 1   
    20     9    11 1   
    21    13    21 1   
@<TRIPOS>SUBSTRUCTURE
     1 GUZ         1 TEMP              0 ****  ****    0 ROOT
