@<TRIPOS>MOLECULE
GUZ
   21    21     1     0     0
SMALL
abcg2


@<TRIPOS>ATOM
      1 C1          34.0540     1.3020    34.1500 c6         1 GUZ       0.354300
      2 C2          34.6690     0.4280    33.0580 c6         1 GUZ       0.178300
      3 F2          33.6810     0.0240    32.1700 f          1 GUZ      -0.268000
      4 C3          35.3740    -0.7760    33.6420 c6         1 GUZ       0.137300
      5 O3          35.9660    -1.4880    32.5830 oh         1 GUZ      -0.671000
      6 C4          36.4040    -0.2780    34.6500 c6         1 GUZ       0.134300
      7 O4          37.0180    -1.3820    35.2550 oh         1 GUZ      -0.791000
      8 C5          35.7240     0.6220    35.6920 c6         1 GUZ      -0.018700
      9 C6          36.7470     1.1790    36.7060 c          1 GUZ       0.732000
     10 O6A         36.6660     2.3580    37.0530 o          1 GUZ      -0.702500
     11 O6B         37.5840     0.3270    37.1110 o          1 GUZ      -0.702500
     12 O5          35.0500     1.6890    35.0520 os         1 GUZ      -0.440000
     13 O1          33.0170     0.5950    34.7460 oh         1 GUZ      -0.678000
     14 H1          33.6910     2.2390    33.7100 h2         1 GUZ       0.051700
     15 H2          35.3840     1.0360    32.4950 h1         1 GUZ       0.065700
     16 H3          34.6440    -1.4030    34.1760 h1         1 GUZ       0.055700
     17 HO3         36.3710    -2.2810    32.9500 ho         1 GUZ       0.455000
     18 H4          37.1390     0.3360    34.0980 h1         1 GUZ       0.036700
     19 HO4         37.4230    -0.9860    36.0660 ho         1 GUZ       0.579000
     20 H5          35.0130     0.0020    36.2600 h1         1 GUZ       0.043700
     21 HO1         32.5020     1.1970    35.2950 ho         1 GUZ       0.448000
@<TRIPOS>BOND
     1     1     2 1   
     2     1    12 1   
     3     1    13 1   
     4     1    14 1   
     5     2     3 1   
     6     2     4 1   
     7     2    15 1   
     8     4     5 1   
     9     4     6 1   
    10     4    16 1   
    11     5    17 1   
    12     6     7 1   
    13     6     8 1   
    14     6    18 1   
    15     7    19 1   
    16     8     9 1   
    17     8    12 1   
    18     8    20 1   
    19     9    10 1   
    20     9    11 1   
    21    13    21 1   
@<TRIPOS>SUBSTRUCTURE
     1 GUZ         1 TEMP              0 ****  ****    0 ROOT
