@<TRIPOS>MOLECULE
GV0
   83    88     1     0     0
SMALL
No Charge or Current Charge


@<TRIPOS>ATOM
      1 CAV        -11.3440    -0.3490     0.4740 c6         1 GV0       0.127800
      2 CAZ        -12.4750    -0.1730     1.5410 c6         1 GV0       0.161300
      3 NAI        -13.2260     1.1080     1.3850 n3         1 GV0      -0.709600
      4 CBC        -14.1240     1.1250     0.2050 c3         1 GV0       0.151100
      5 CBA        -12.2550     2.2430     1.4070 c6         1 GV0       0.161300
      6 CAW        -11.1210     2.0940     0.3400 c6         1 GV0       0.127800
      7 NAG        -10.3660     0.7960     0.4550 n3         1 GV0      -0.711600
      8 CAQ         -9.3070     0.6410    -0.6060 c6         1 GV0       0.188500
      9 CAU         -8.2880     1.8270    -0.5960 c6         1 GV0      -0.106900
     10 CAY         -7.1460     1.6280    -1.6180 c6         1 GV0       0.096500
     11 CAT         -8.5180    -0.7000    -0.4560 c6         1 GV0      -0.106900
     12 CAX         -7.3730    -0.8220    -1.4850 c6         1 GV0       0.096500
     13 NAH         -6.4540     0.3400    -1.3830 n          1 GV0      -0.412800
     14 CBB         -5.1030     0.2730    -0.9720 c          1 GV0       0.673100
     15 OAE         -4.4200     1.2790    -0.8620 o          1 GV0      -0.620100
     16 NAL         -4.6160    -0.9850    -0.7180 ns         1 GV0      -0.336900
     17 CBJ         -3.3600    -1.4130    -0.2840 ca         1 GV0       0.521900
     18 CBQ         -2.3460    -0.5980     0.2420 ca         1 GV0      -0.211000
     19 NAM         -3.2420    -2.7470    -0.4170 nb         1 GV0      -0.761000
     20 CBT         -2.0820    -3.3190    -0.0290 ca         1 GV0       0.401900
     21 CBS         -1.0140    -2.5850     0.4980 ca         1 GV0      -0.273000
     22 CBR         -1.1450    -1.1960     0.6280 ca         1 GV0       0.190100
     23 OAF         -0.1420    -0.4200     1.1620 os         1 GV0      -0.243200
     24 CBO          1.1940    -0.6730     0.9460 ca         1 GV0       0.117100
     25 CBK          1.6630    -1.0750    -0.3170 ca         1 GV0      -0.150000
     26 CBF          3.0320    -1.3100    -0.5090 ca         1 GV0       0.152000
     27 FAA          3.4650    -1.7010    -1.7290 f          1 GV0      -0.175000
     28 CBL          2.1010    -0.4870     2.0000 ca         1 GV0      -0.110000
     29 CBG          3.4740    -0.7230     1.8080 ca         1 GV0      -0.075000
     30 CBD          3.9550    -1.1420     0.5460 ca         1 GV0      -0.082000
     31 NAJ          5.3320    -1.3980     0.2790 ns         1 GV0      -0.160000
     32 CAR          6.4670    -1.3480     1.0740 c          1 GV0       0.635100
     33 OAC          6.4830    -1.0400     2.2570 o          1 GV0      -0.557100
     34 CAN          7.7280    -1.6990     0.3480 cx         1 GV0      -0.346000
     35 CAO          7.8330    -3.0740    -0.3010 cx         1 GV0      -0.072900
     36 CAP          8.6340    -2.7710     0.9440 cx         1 GV0      -0.072900
     37 CAS          8.3640    -0.5330    -0.3450 c          1 GV0       0.649100
     38 OAD          8.1250    -0.2890    -1.5190 o          1 GV0      -0.579100
     39 NAK          9.2040     0.2100     0.4710 ns         1 GV0      -0.149000
     40 CBE          9.9930     1.3700     0.2340 ca         1 GV0      -0.047000
     41 CBH         10.0850     2.0080    -1.0250 ca         1 GV0      -0.108000
     42 CBM         10.8880     3.1520    -1.1830 ca         1 GV0      -0.130500
     43 CBP         11.6020     3.6660    -0.0910 ca         1 GV0       0.155000
     44 FAB         12.3720     4.7650    -0.2470 f          1 GV0      -0.177000
     45 CBN         11.5190     3.0420     1.1610 ca         1 GV0      -0.130500
     46 CBI         10.7180     1.8980     1.3220 ca         1 GV0      -0.108000
     47 H1         -10.8360    -1.2920     0.7130 h1         1 GV0       0.034200
     48 H2         -11.8030    -0.4720    -0.5180 h1         1 GV0       0.034200
     49 H3         -13.1600    -1.0330     1.4820 h1         1 GV0       0.058950
     50 H4         -12.0120    -0.2120     2.5380 h1         1 GV0       0.058950
     51 H6         -14.8480     0.3020     0.2600 h1         1 GV0       0.030033
     52 H7         -14.6870     2.0670     0.1630 h1         1 GV0       0.030033
     53 H8         -13.5620     1.0220    -0.7330 h1         1 GV0       0.030033
     54 H9         -12.7730     3.2000     1.2490 h1         1 GV0       0.058950
     55 H10        -11.7820     2.3050     2.3990 h1         1 GV0       0.058950
     56 H11        -11.5600     2.1890    -0.6640 h1         1 GV0       0.034200
     57 H12        -10.4490     2.9500     0.4780 h1         1 GV0       0.034200
     58 H14         -9.7910     0.6310    -1.5940 h1         1 GV0       0.018700
     59 H15         -8.7840     2.7730    -0.8420 hc         1 GV0       0.058700
     60 H16         -7.8620     1.9410     0.4100 hc         1 GV0       0.058700
     61 H17         -7.5610     1.6320    -2.6360 h1         1 GV0       0.059950
     62 H18         -6.4460     2.4720    -1.5510 h1         1 GV0       0.059950
     63 H19         -8.1070    -0.7780     0.5600 hc         1 GV0       0.058700
     64 H20         -9.1790    -1.5620    -0.6000 hc         1 GV0       0.058700
     65 H21         -6.8540    -1.7790    -1.3390 h1         1 GV0       0.059950
     66 H22         -7.7990    -0.8480    -2.4990 h1         1 GV0       0.059950
     67 H23         -5.2630    -1.7410    -0.8790 hn         1 GV0       0.168000
     68 H24         -2.4750     0.4710     0.3580 ha         1 GV0       0.172000
     69 H25         -2.0110    -4.4010    -0.1420 h4         1 GV0       0.019100
     70 H26         -0.1080    -3.0970     0.8070 ha         1 GV0       0.138000
     71 H27          0.9750    -1.2010    -1.1480 ha         1 GV0       0.151000
     72 H28          1.7370    -0.1630     2.9720 ha         1 GV0       0.142000
     73 H29          4.1420    -0.5720     2.6500 ha         1 GV0       0.135000
     74 H30          5.5190    -1.6710    -0.6780 hn         1 GV0       0.172000
     75 H31          6.9980    -3.7650    -0.2010 hc         1 GV0       0.093950
     76 H32          8.3770    -3.1640    -1.2390 hc         1 GV0       0.093950
     77 H33          9.7110    -2.6670     0.8320 hc         1 GV0       0.093950
     78 H34          8.3250    -3.2520     1.8700 hc         1 GV0       0.093950
     79 H35          9.2670    -0.1420     1.4170 hn         1 GV0       0.160000
     80 H36          9.5480     1.6340    -1.8920 ha         1 GV0       0.129000
     81 H37         10.9580     3.6410    -2.1520 ha         1 GV0       0.134500
     82 H38         12.0750     3.4450     2.0050 ha         1 GV0       0.134500
     83 H39         10.6600     1.4210     2.2990 ha         1 GV0       0.129000
@<TRIPOS>BOND
     1     1     2 1   
     2     1     7 1   
     3     1    47 1   
     4     1    48 1   
     5     2     3 1   
     6     2    49 1   
     7     2    50 1   
     8     3     4 1   
     9     3     5 1   
    10     4    51 1   
    11     4    52 1   
    12     4    53 1   
    13     5     6 1   
    14     5    54 1   
    15     5    55 1   
    16     6     7 1   
    17     6    56 1   
    18     6    57 1   
    19     7     8 1   
    20     8     9 1   
    21     8    11 1   
    22     8    58 1   
    23     9    10 1   
    24     9    59 1   
    25     9    60 1   
    26    10    13 1   
    27    10    61 1   
    28    10    62 1   
    29    11    12 1   
    30    11    63 1   
    31    11    64 1   
    32    12    13 1   
    33    12    65 1   
    34    12    66 1   
    35    13    14 1   
    36    14    15 2   
    37    14    16 1   
    38    16    17 1   
    39    16    67 1   
    40    17    18 ar  
    41    17    19 ar  
    42    18    22 ar  
    43    18    68 1   
    44    19    20 ar  
    45    20    21 ar  
    46    20    69 1   
    47    21    22 ar  
    48    21    70 1   
    49    22    23 1   
    50    23    24 1   
    51    24    25 ar  
    52    24    28 ar  
    53    25    26 ar  
    54    25    71 1   
    55    26    27 1   
    56    26    30 ar  
    57    28    29 ar  
    58    28    72 1   
    59    29    30 ar  
    60    29    73 1   
    61    30    31 1   
    62    31    32 1   
    63    31    74 1   
    64    32    33 2   
    65    32    34 1   
    66    34    35 1   
    67    34    36 1   
    68    34    37 1   
    69    35    36 1   
    70    35    75 1   
    71    35    76 1   
    72    36    77 1   
    73    36    78 1   
    74    37    38 2   
    75    37    39 1   
    76    39    40 1   
    77    39    79 1   
    78    40    41 ar  
    79    40    46 ar  
    80    41    42 ar  
    81    41    80 1   
    82    42    43 ar  
    83    42    81 1   
    84    43    44 1   
    85    43    45 ar  
    86    45    46 ar  
    87    45    82 1   
    88    46    83 1   
@<TRIPOS>SUBSTRUCTURE
     1 GV0         1 TEMP              0 ****  ****    0 ROOT
