@<TRIPOS>MOLECULE
GV0
   83    88     1     0     0
SMALL
bcc


@<TRIPOS>ATOM
      1 CAV        -10.9640    -0.4420     0.5220 c6         1 GV0       0.127800
      2 CAZ        -11.8960    -0.4490     1.7290 c6         1 GV0       0.161300
      3 NAI        -12.5420     0.8250     1.9810 n3         1 GV0      -0.709600
      4 CBC        -13.6160     1.1260     1.0570 c3         1 GV0       0.151100
      5 CBA        -11.5240     1.8550     2.0430 c6         1 GV0       0.161300
      6 CAW        -10.5850     1.8870     0.8420 c6         1 GV0       0.127800
      7 NAG         -9.9450     0.5930     0.6420 n3         1 GV0      -0.711600
      8 CAQ         -9.0300     0.5690    -0.4990 c6         1 GV0       0.188500
      9 CAU         -8.0810     1.7700    -0.5210 c6         1 GV0      -0.106900
     10 CAY         -7.0800     1.6740    -1.6680 c6         1 GV0       0.096500
     11 CAT         -8.1910    -0.7150    -0.5000 c6         1 GV0      -0.106900
     12 CAX         -7.1950    -0.7210    -1.6510 c6         1 GV0       0.096500
     13 NAH         -6.3220     0.4380    -1.5970 n          1 GV0      -0.479800
     14 CBB         -5.0350     0.4660    -1.1660 c          1 GV0       0.807100
     15 OAE         -4.3860     1.5010    -1.1050 o          1 GV0      -0.620100
     16 NAL         -4.4920    -0.7520    -0.8170 ns         1 GV0      -0.570400
     17 CBJ         -3.1750    -1.0350    -0.4960 ca         1 GV0       0.587200
     18 CBQ         -2.1030    -0.1770    -0.7290 ca         1 GV0      -0.294300
     19 NAM         -3.0240    -2.2500     0.0310 nb         1 GV0      -0.761000
     20 CBT         -1.8010    -2.6450     0.3490 ca         1 GV0       0.467200
     21 CBS         -0.6590    -1.8840     0.1730 ca         1 GV0      -0.356300
     22 CBR         -0.8350    -0.6220    -0.3860 ca         1 GV0       0.190100
     23 OAF          0.1750     0.2460    -0.6190 os         1 GV0      -0.243200
     24 CBO          1.4740    -0.1660    -0.4630 ca         1 GV0       0.117100
     25 CBK          2.0660    -0.9510    -1.4400 ca         1 GV0      -0.168000
     26 CBF          3.3870    -1.3060    -1.2720 ca         1 GV0       0.116900
     27 FAA          3.9740    -2.0720    -2.2000 f          1 GV0      -0.139900
     28 CBL          2.1880     0.2580     0.6450 ca         1 GV0      -0.128000
     29 CBG          3.5220    -0.0950     0.7720 ca         1 GV0      -0.093000
     30 CBD          4.1430    -0.8910    -0.1820 ca         1 GV0       0.010600
     31 NAJ          5.4910    -1.2690    -0.0890 ns         1 GV0      -0.486100
     32 CAR          6.0390    -1.8640     1.0060 c          1 GV0       0.702100
     33 OAC          5.4150    -2.0860     2.0220 o          1 GV0      -0.557100
     34 CAN          7.4870    -2.2370     0.8210 cx         1 GV0      -0.346000
     35 CAO          7.7210    -3.5830     0.1590 cx         1 GV0      -0.072900
     36 CAP          7.9820    -3.4230     1.6070 cx         1 GV0      -0.072900
     37 CAS          8.5220    -1.1840     0.5340 c          1 GV0       0.716100
     38 OAD          9.6710    -1.4970     0.2850 o          1 GV0      -0.579100
     39 NAK          8.1040     0.1040     0.5920 ns         1 GV0      -0.475100
     40 CBE          8.9040     1.2480     0.4220 ca         1 GV0       0.045600
     41 CBH          9.9740     1.3040    -0.4700 ca         1 GV0      -0.126000
     42 CBM         10.6990     2.4770    -0.6120 ca         1 GV0      -0.148500
     43 CBP         10.3440     3.5880     0.1260 ca         1 GV0       0.119900
     44 FAB         11.0470     4.7230    -0.0190 f          1 GV0      -0.141900
     45 CBN          9.2800     3.5640     1.0060 ca         1 GV0      -0.148500
     46 CBI          8.5670     2.3850     1.1530 ca         1 GV0      -0.126000
     47 H1         -10.4960    -1.4250     0.4640 h1         1 GV0       0.034200
     48 H2         -11.5500    -0.3200    -0.4060 h1         1 GV0       0.034200
     49 H3         -12.6550    -1.2220     1.5940 h1         1 GV0       0.058950
     50 H4         -11.3160    -0.7230     2.6170 h1         1 GV0       0.058950
     51 H6         -14.3690     0.3370     1.1050 h1         1 GV0       0.030033
     52 H7         -14.0970     2.0600     1.3520 h1         1 GV0       0.030033
     53 H8         -13.3180     1.2300     0.0050 h1         1 GV0       0.030033
     54 H9         -12.0000     2.8320     2.1520 h1         1 GV0       0.058950
     55 H10        -10.9220     1.6890     2.9440 h1         1 GV0       0.058950
     56 H11        -11.1290     2.2170    -0.0600 h1         1 GV0       0.034200
     57 H12         -9.8300     2.6460     1.0430 h1         1 GV0       0.034200
     58 H14         -9.6110     0.5930    -1.4430 h1         1 GV0       0.018700
     59 H15         -8.6270     2.7050    -0.6460 hc         1 GV0       0.058700
     60 H16         -7.5420     1.8290     0.4300 hc         1 GV0       0.058700
     61 H17         -7.6090     1.6940    -2.6250 h1         1 GV0       0.059950
     62 H18         -6.4050     2.5250    -1.6560 h1         1 GV0       0.059950
     63 H19         -7.6600    -0.7950     0.4540 hc         1 GV0       0.058700
     64 H20         -8.8170    -1.6020    -0.5980 hc         1 GV0       0.058700
     65 H21         -6.6340    -1.6530    -1.6800 h1         1 GV0       0.059950
     66 H22         -7.7330    -0.6820    -2.6030 h1         1 GV0       0.059950
     67 H23         -5.0990    -1.5400    -0.6540 hn         1 GV0       0.334500
     68 H24         -2.2360     0.8000    -1.1620 ha         1 GV0       0.190000
     69 H25         -1.7170    -3.6360     0.7800 h4         1 GV0       0.019100
     70 H26          0.3050    -2.2730     0.4640 ha         1 GV0       0.156000
     71 H27          1.5170    -1.2840    -2.3120 ha         1 GV0       0.169000
     72 H28          1.7130     0.8770     1.3950 ha         1 GV0       0.160000
     73 H29          4.0840     0.2630     1.6230 ha         1 GV0       0.153000
     74 H30          6.0310    -1.2720    -0.9430 hn         1 GV0       0.338500
     75 H31          6.8380    -4.1300    -0.1460 hc         1 GV0       0.093950
     76 H32          8.5580    -3.6520    -0.5220 hc         1 GV0       0.093950
     77 H33          9.0080    -3.3900     1.9470 hc         1 GV0       0.093950
     78 H34          7.2860    -3.8620     2.3090 hc         1 GV0       0.093950
     79 H35          7.1620     0.2930     0.8930 hn         1 GV0       0.326500
     80 H36         10.2450     0.4490    -1.0690 ha         1 GV0       0.147000
     81 H37         11.5300     2.5220    -1.3040 ha         1 GV0       0.152500
     82 H38          9.0130     4.4440     1.5770 ha         1 GV0       0.152500
     83 H39          7.7370     2.3530     1.8490 ha         1 GV0       0.147000
@<TRIPOS>BOND
     1     1     2 1   
     2     1     7 1   
     3     1    47 1   
     4     1    48 1   
     5     2     3 1   
     6     2    49 1   
     7     2    50 1   
     8     3     4 1   
     9     3     5 1   
    10     4    51 1   
    11     4    52 1   
    12     4    53 1   
    13     5     6 1   
    14     5    54 1   
    15     5    55 1   
    16     6     7 1   
    17     6    56 1   
    18     6    57 1   
    19     7     8 1   
    20     8     9 1   
    21     8    11 1   
    22     8    58 1   
    23     9    10 1   
    24     9    59 1   
    25     9    60 1   
    26    10    13 1   
    27    10    61 1   
    28    10    62 1   
    29    11    12 1   
    30    11    63 1   
    31    11    64 1   
    32    12    13 1   
    33    12    65 1   
    34    12    66 1   
    35    13    14 1   
    36    14    15 2   
    37    14    16 1   
    38    16    17 1   
    39    16    67 1   
    40    17    18 ar  
    41    17    19 ar  
    42    18    22 ar  
    43    18    68 1   
    44    19    20 ar  
    45    20    21 ar  
    46    20    69 1   
    47    21    22 ar  
    48    21    70 1   
    49    22    23 1   
    50    23    24 1   
    51    24    25 ar  
    52    24    28 ar  
    53    25    26 ar  
    54    25    71 1   
    55    26    27 1   
    56    26    30 ar  
    57    28    29 ar  
    58    28    72 1   
    59    29    30 ar  
    60    29    73 1   
    61    30    31 1   
    62    31    32 1   
    63    31    74 1   
    64    32    33 2   
    65    32    34 1   
    66    34    35 1   
    67    34    36 1   
    68    34    37 1   
    69    35    36 1   
    70    35    75 1   
    71    35    76 1   
    72    36    77 1   
    73    36    78 1   
    74    37    38 2   
    75    37    39 1   
    76    39    40 1   
    77    39    79 1   
    78    40    41 ar  
    79    40    46 ar  
    80    41    42 ar  
    81    41    80 1   
    82    42    43 ar  
    83    42    81 1   
    84    43    44 1   
    85    43    45 ar  
    86    45    46 ar  
    87    45    82 1   
    88    46    83 1   
@<TRIPOS>SUBSTRUCTURE
     1 GV0         1 TEMP              0 ****  ****    0 ROOT
