@<TRIPOS>MOLECULE
GV1
   27    28     1     0     0
SMALL
bcc


@<TRIPOS>ATOM
      1 N1          -1.9110     1.4070    -0.6770 nb         1 GV1      -0.786000
      2 N3          -2.3330    -0.8260    -0.2400 nh         1 GV1      -0.756300
      3 C4           0.6550     1.2510    -0.0180 ca         1 GV1       0.468600
      4 C5          -0.0590     0.0490    -0.0730 ca         1 GV1      -0.316400
      5 C6          -1.4460     0.2140    -0.3260 ca         1 GV1       0.722200
      6 C7          -1.0950     2.4540    -0.6480 ca         1 GV1       0.679900
      7 C8          -2.4270    -1.5300     1.0300 c3         1 GV1       0.190600
      8 C10          3.2720    -1.6360     0.4930 c3         1 GV1      -0.024900
      9 C1           0.4130    -2.5300    -0.1920 c3         1 GV1      -0.031900
     10 C2           0.7960    -1.1060     0.0730 cc         1 GV1      -0.038400
     11 C3           2.0840    -0.7440     0.3180 cd         1 GV1      -0.077600
     12 S1           2.3180     0.9780     0.3460 ss         1 GV1      -0.107900
     13 N2           0.1670     2.4610    -0.2750 nb         1 GV1      -0.692000
     14 C9          -3.6270    -0.6580    -0.8720 c3         1 GV1       0.190600
     15 H1          -1.5250     3.4060    -0.9390 h5         1 GV1       0.049100
     16 H2          -3.2080    -1.0840     1.6560 h1         1 GV1       0.042200
     17 H3          -2.6790    -2.5790     0.8700 h1         1 GV1       0.042200
     18 H4          -1.4960    -1.4790     1.5870 h1         1 GV1       0.042200
     19 H5           4.1750    -1.0690     0.7120 hc         1 GV1       0.047367
     20 H6           3.1200    -2.3390     1.3130 hc         1 GV1       0.047367
     21 H7           3.4620    -2.2170    -0.4100 hc         1 GV1       0.047367
     22 H8           0.2020    -2.6730    -1.2540 hc         1 GV1       0.045367
     23 H9           1.2260    -3.2040     0.0720 hc         1 GV1       0.045367
     24 H10         -0.4640    -2.8600     0.3550 hc         1 GV1       0.045367
     25 H11         -4.2950     0.0020    -0.3110 h1         1 GV1       0.042200
     26 H12         -3.5160    -0.2630    -1.8790 h1         1 GV1       0.042200
     27 H13         -4.0980    -1.6390    -0.9410 h1         1 GV1       0.042200
@<TRIPOS>BOND
     1     1     5 ar  
     2     1     6 ar  
     3     2     5 1   
     4     2     7 1   
     5     2    14 1   
     6     3     4 ar  
     7     3    12 1   
     8     3    13 ar  
     9     4     5 ar  
    10     4    10 1   
    11     6    13 ar  
    12     6    15 1   
    13     7    16 1   
    14     7    17 1   
    15     7    18 1   
    16     8    11 1   
    17     8    19 1   
    18     8    20 1   
    19     8    21 1   
    20     9    10 1   
    21     9    22 1   
    22     9    23 1   
    23     9    24 1   
    24    10    11 2   
    25    11    12 1   
    26    14    25 1   
    27    14    26 1   
    28    14    27 1   
@<TRIPOS>SUBSTRUCTURE
     1 GV1         1 TEMP              0 ****  ****    0 ROOT
