@<TRIPOS>MOLECULE
GV1
   27    28     1     0     0
SMALL
No Charge or Current Charge


@<TRIPOS>ATOM
      1 N1          -1.9630     1.5250    -0.3370 nb         1 GV1      -0.260000
      2 N3          -2.3400    -0.7670    -0.1250 nh         1 GV1      -0.756300
      3 C4           0.7490     1.2950    -0.1000 ca         1 GV1       0.140300
      4 C5          -0.0150     0.1400    -0.0820 ca         1 GV1      -0.185800
      5 C6          -1.4190     0.2970    -0.1910 ca         1 GV1       0.393900
      6 C7          -1.1140     2.5760    -0.3550 ca         1 GV1       0.153900
      7 C8          -2.6370    -1.3900     1.1800 c3         1 GV1       0.190600
      8 C10          3.2940    -1.7000     0.2970 c3         1 GV1      -0.024900
      9 C1           0.2660    -2.4930    -0.0120 c3         1 GV1      -0.031900
     10 C2           0.7890    -1.0770     0.0340 cc         1 GV1      -0.038400
     11 C3           2.1370    -0.7440     0.1520 cd         1 GV1      -0.077600
     12 S1           2.4800     1.0060     0.0810 ss         1 GV1      -0.107900
     13 N2           0.2280     2.5270    -0.2350 nb         1 GV1      -0.166000
     14 C9          -3.3610    -0.9290    -1.1820 c3         1 GV1       0.190600
     15 H1          -1.5590     3.5630    -0.4700 h5         1 GV1       0.049100
     16 H2          -3.5790    -0.9990     1.5890 h1         1 GV1       0.042200
     17 H3          -2.7230    -2.4800     1.0750 h1         1 GV1       0.042200
     18 H4          -1.8360    -1.1810     1.9020 h1         1 GV1       0.042200
     19 H5           4.2290    -1.1680     0.5070 hc         1 GV1       0.047367
     20 H6           3.1220    -2.4040     1.1200 hc         1 GV1       0.047367
     21 H7           3.4400    -2.2810    -0.6210 hc         1 GV1       0.047367
     22 H8          -0.5070    -2.6080    -0.7800 hc         1 GV1       0.045367
     23 H9           1.0590    -3.2100    -0.2540 hc         1 GV1       0.045367
     24 H10         -0.1570    -2.7860     0.9560 hc         1 GV1       0.045367
     25 H11         -4.2470    -0.3200    -0.9610 h1         1 GV1       0.042200
     26 H12         -2.9580    -0.6240    -2.1570 h1         1 GV1       0.042200
     27 H13         -3.6680    -1.9810    -1.2600 h1         1 GV1       0.042200
@<TRIPOS>BOND
     1     1     5 ar  
     2     1     6 ar  
     3     2     5 1   
     4     2     7 1   
     5     2    14 1   
     6     3     4 ar  
     7     3    12 1   
     8     3    13 ar  
     9     4     5 ar  
    10     4    10 1   
    11     6    13 ar  
    12     6    15 1   
    13     7    16 1   
    14     7    17 1   
    15     7    18 1   
    16     8    11 1   
    17     8    19 1   
    18     8    20 1   
    19     8    21 1   
    20     9    10 1   
    21     9    22 1   
    22     9    23 1   
    23     9    24 1   
    24    10    11 2   
    25    11    12 1   
    26    14    25 1   
    27    14    26 1   
    28    14    27 1   
@<TRIPOS>SUBSTRUCTURE
     1 GV1         1 TEMP              0 ****  ****    0 ROOT
