@<TRIPOS>MOLECULE
GV2
   62    67     1     0     0
SMALL
No Charge or Current Charge


@<TRIPOS>ATOM
      1 CBF          5.4050     2.1980    -0.0660 c6         1 GV2      -0.131900
      2 CBG          5.4280     3.6590    -0.5730 c6         1 GV2       0.157100
      3 OBH          4.5090     3.8060    -1.6760 os         1 GV2      -0.450000
      4 CBI          3.1360     3.5210    -1.3350 c6         1 GV2       0.157100
      5 CBJ          3.0100     2.0560    -0.8580 c6         1 GV2      -0.131900
      6 CBE          3.9670     1.7840     0.3290 c6         1 GV2       0.113700
      7 NBD          3.9310     0.3680     0.7070 ns         1 GV2      -0.493900
      8 CBB          2.9570    -0.2300     1.4750 c          1 GV2       0.617700
      9 OBC          2.0570     0.4270     1.9810 o          1 GV2      -0.581100
     10 CAW          3.1520    -1.7060     1.7170 ca         1 GV2      -0.143600
     11 CAX          4.4600    -2.2140     1.9280 ca         1 GV2      -0.123000
     12 CAY          4.6510    -3.5710     2.2390 ca         1 GV2       0.310900
     13 NAZ          3.6320    -4.4470     2.3540 nb         1 GV2      -0.633000
     14 CBA          2.3780    -3.9720     2.1390 ca         1 GV2       0.294900
     15 CAV          2.0720    -2.6220     1.7990 ca         1 GV2       0.290000
     16 NAQ          0.7350    -2.2550     1.5180 nu         1 GV2      -0.989000
     17 CAA          0.1690    -1.4650     0.5160 ca         1 GV2       0.347000
     18 CAB         -1.1020    -0.9190     0.7040 ca         1 GV2      -0.139000
     19 CAF          0.8510    -1.2310    -0.6800 ca         1 GV2      -0.173000
     20 CAE          0.2890    -0.4400    -1.6900 ca         1 GV2       0.262000
     21 NAM          1.0020    -0.2600    -2.8350 nb         1 GV2      -0.645000
     22 CAN          0.4250     0.5100    -3.7930 ca         1 GV2       0.306900
     23 CAO         -0.8510     1.0900    -3.6180 ca         1 GV2       0.275900
     24 NAP         -1.5740     0.9140    -2.4820 nb         1 GV2      -0.607000
     25 CAD         -1.0100     0.1500    -1.4990 ca         1 GV2       0.199000
     26 CAC         -1.7080    -0.0970    -0.2770 cp         1 GV2       0.046000
     27 CAG         -3.0640     0.4750     0.0100 cp         1 GV2      -0.022000
     28 CAH         -4.1130    -0.3700     0.4710 ca         1 GV2      -0.111000
     29 CAI         -5.3660     0.1960     0.7510 ca         1 GV2      -0.056200
     30 NAT         -6.5370    -0.4040     1.2020 na         1 GV2      -0.088700
     31 CAU         -6.6230    -1.8480     1.4680 c3         1 GV2       0.065900
     32 CAS         -7.5600     0.5540     1.3500 cc         1 GV2      -0.156100
     33 CAR         -6.9630     1.7500     0.9730 cd         1 GV2      -0.241200
     34 CAJ         -5.5890     1.5340     0.5960 ca         1 GV2      -0.086800
     35 CAK         -4.5970     2.4150     0.1560 ca         1 GV2      -0.068000
     36 CAL         -3.3270     1.8720    -0.1340 ca         1 GV2      -0.098000
     37 H1           5.7910     1.5350    -0.8520 hc         1 GV2       0.058450
     38 H2           6.0780     2.0940     0.7960 hc         1 GV2       0.058450
     39 H3           5.1440     4.3510     0.2340 h1         1 GV2       0.047200
     40 H4           6.4400     3.9240    -0.9120 h1         1 GV2       0.047200
     41 H5           2.8040     4.2120    -0.5460 h1         1 GV2       0.047200
     42 H6           2.5050     3.6840    -2.2210 h1         1 GV2       0.047200
     43 H7           1.9720     1.8540    -0.5630 hc         1 GV2       0.058450
     44 H8           3.2400     1.3800    -1.6930 hc         1 GV2       0.058450
     45 H9           3.6490     2.3880     1.1930 h1         1 GV2       0.078700
     46 H10          4.6440    -0.2440     0.3300 hn         1 GV2       0.317500
     47 H11          5.3300    -1.5630     1.8940 ha         1 GV2       0.129000
     48 H12          5.6520    -3.9630     2.4180 h4         1 GV2       0.026100
     49 H13          1.5790    -4.7090     2.2150 h4         1 GV2       0.023100
     50 H14          0.0430    -2.7150     2.1150 hn         1 GV2       0.506000
     51 H15         -1.6250    -1.1030     1.6370 ha         1 GV2       0.126000
     52 H16          1.8270    -1.6760    -0.8410 ha         1 GV2       0.136000
     53 H17          0.9890     0.6620    -4.7120 h4         1 GV2       0.028100
     54 H18         -1.3000     1.7020    -4.3990 h4         1 GV2       0.030100
     55 H19         -3.9460    -1.4370     0.5960 ha         1 GV2       0.111000
     56 H20         -5.8970    -2.1240     2.2420 h1         1 GV2       0.047367
     57 H21         -7.6330    -2.1030     1.8130 h1         1 GV2       0.047367
     58 H22         -6.4050    -2.4050     0.5480 h1         1 GV2       0.047367
     59 H23         -8.5640     0.3170     1.6900 h4         1 GV2       0.209000
     60 H24         -7.4680     2.7130     0.9650 ha         1 GV2       0.206000
     61 H25         -4.7950     3.4780     0.0450 ha         1 GV2       0.116000
     62 H26         -2.5340     2.5370    -0.4650 ha         1 GV2       0.118000
@<TRIPOS>BOND
     1     1     2 1   
     2     1     6 1   
     3     1    37 1   
     4     1    38 1   
     5     2     3 1   
     6     2    39 1   
     7     2    40 1   
     8     3     4 1   
     9     4     5 1   
    10     4    41 1   
    11     4    42 1   
    12     5     6 1   
    13     5    43 1   
    14     5    44 1   
    15     6     7 1   
    16     6    45 1   
    17     7     8 1   
    18     7    46 1   
    19     8     9 2   
    20     8    10 1   
    21    10    11 ar  
    22    10    15 ar  
    23    11    12 ar  
    24    11    47 1   
    25    12    13 ar  
    26    12    48 1   
    27    13    14 ar  
    28    14    15 ar  
    29    14    49 1   
    30    15    16 1   
    31    16    17 1   
    32    16    50 1   
    33    17    18 ar  
    34    17    19 ar  
    35    18    26 ar  
    36    18    51 1   
    37    19    20 ar  
    38    19    52 1   
    39    20    21 ar  
    40    20    25 ar  
    41    21    22 ar  
    42    22    23 ar  
    43    22    53 1   
    44    23    24 ar  
    45    23    54 1   
    46    24    25 ar  
    47    25    26 ar  
    48    26    27 1   
    49    27    28 ar  
    50    27    36 ar  
    51    28    29 ar  
    52    28    55 1   
    53    29    30 1   
    54    29    34 ar  
    55    30    31 1   
    56    30    32 1   
    57    31    56 1   
    58    31    57 1   
    59    31    58 1   
    60    32    33 2   
    61    32    59 1   
    62    33    34 1   
    63    33    60 1   
    64    34    35 ar  
    65    35    36 ar  
    66    35    61 1   
    67    36    62 1   
@<TRIPOS>SUBSTRUCTURE
     1 GV2         1 TEMP              0 ****  ****    0 ROOT
