@<TRIPOS>MOLECULE
GV2
   62    67     1     0     0
SMALL
abcg2


@<TRIPOS>ATOM
      1 CBF          4.9240     2.2590    -0.1160 c6         1 GV2      -0.131900
      2 CBG          4.8130     3.7340    -0.4720 c6         1 GV2       0.157100
      3 OBH          3.8260     3.9710    -1.4510 os         1 GV2      -0.450000
      4 CBI          2.5460     3.5610    -1.0210 c6         1 GV2       0.157100
      5 CBJ          2.5050     2.0760    -0.6970 c6         1 GV2      -0.131900
      6 CBE          3.5690     1.7330     0.3440 c6         1 GV2       0.113700
      7 NBD          3.6430     0.3090     0.6010 ns         1 GV2      -0.493900
      8 CBB          2.9300    -0.3120     1.5500 c          1 GV2       0.617700
      9 OBC          2.1680     0.2490     2.3200 o          1 GV2      -0.581100
     10 CAW          3.1840    -1.7880     1.6650 ca         1 GV2      -0.143600
     11 CAX          4.4790    -2.2590     1.8280 ca         1 GV2      -0.123000
     12 CAY          4.6860    -3.6000     2.1140 ca         1 GV2       0.310900
     13 NAZ          3.6920    -4.4700     2.2320 nb         1 GV2      -0.633000
     14 CBA          2.4570    -4.0350     2.0370 ca         1 GV2       0.294900
     15 CAV          2.1340    -2.7090     1.7510 ca         1 GV2       0.290000
     16 NAQ          0.8060    -2.3430     1.5780 nu         1 GV2      -0.989000
     17 CAA          0.3290    -1.5890     0.5300 ca         1 GV2       0.347000
     18 CAB         -0.9320    -0.9590     0.6900 ca         1 GV2      -0.139000
     19 CAF          1.0220    -1.4270    -0.6480 ca         1 GV2      -0.173000
     20 CAE          0.4760    -0.6360    -1.6720 ca         1 GV2       0.262000
     21 NAM          1.1640    -0.5070    -2.8320 nb         1 GV2      -0.645000
     22 CAN          0.6240     0.2180    -3.7710 ca         1 GV2       0.306900
     23 CAO         -0.6300     0.8440    -3.6100 ca         1 GV2       0.275900
     24 NAP         -1.3170     0.7290    -2.5060 nb         1 GV2      -0.607000
     25 CAD         -0.7830    -0.0020    -1.5100 ca         1 GV2       0.199000
     26 CAC         -1.4930    -0.1770    -0.2850 cp         1 GV2       0.046000
     27 CAG         -2.8020     0.4640    -0.0490 cp         1 GV2      -0.022000
     28 CAH         -3.8570    -0.3040     0.4200 ca         1 GV2      -0.111000
     29 CAI         -5.0660     0.3330     0.6890 ca         1 GV2      -0.056200
     30 NAT         -6.2440    -0.1870     1.1440 na         1 GV2      -0.088700
     31 CAU         -6.4740    -1.5750     1.4600 c3         1 GV2       0.065900
     32 CAS         -7.1510     0.8290     1.2620 cc         1 GV2      -0.156100
     33 CAR         -6.5880     2.0150     0.8860 cd         1 GV2      -0.241200
     34 CAJ         -5.2430     1.7230     0.5110 ca         1 GV2      -0.086800
     35 CAK         -4.1630     2.4820     0.0440 ca         1 GV2      -0.068000
     36 CAL         -2.9680     1.8540    -0.2350 ca         1 GV2      -0.098000
     37 H1           5.2650     1.6920    -0.9890 hc         1 GV2       0.058450
     38 H2           5.6710     2.1310     0.6700 hc         1 GV2       0.058450
     39 H3           4.5940     4.3120     0.4380 h1         1 GV2       0.047200
     40 H4           5.7580     4.1020    -0.8730 h1         1 GV2       0.047200
     41 H5           2.2370     4.1390    -0.1370 h1         1 GV2       0.047200
     42 H6           1.8470     3.7980    -1.8240 h1         1 GV2       0.047200
     43 H7           1.5120     1.8090    -0.3280 hc         1 GV2       0.058450
     44 H8           2.6810     1.4900    -1.6040 hc         1 GV2       0.058450
     45 H9           3.3070     2.2200     1.2870 h1         1 GV2       0.078700
     46 H10          4.1570    -0.2550    -0.0600 hn         1 GV2       0.317500
     47 H11          5.3250    -1.5860     1.7770 ha         1 GV2       0.129000
     48 H12          5.6910    -3.9780     2.2590 h4         1 GV2       0.026100
     49 H13          1.6590    -4.7670     2.1140 h4         1 GV2       0.023100
     50 H14          0.1270    -2.7660     2.1900 hn         1 GV2       0.506000
     51 H15         -1.4490    -1.0780     1.6350 ha         1 GV2       0.126000
     52 H16          1.9740    -1.9080    -0.8300 ha         1 GV2       0.136000
     53 H17          1.1690     0.3280    -4.7020 h4         1 GV2       0.028100
     54 H18         -1.0540     1.4320    -4.4160 h4         1 GV2       0.030100
     55 H19         -3.7410    -1.3730     0.5590 ha         1 GV2       0.111000
     56 H20         -5.8350    -1.9030     2.2800 h1         1 GV2       0.047367
     57 H21         -7.5110    -1.7060     1.7570 h1         1 GV2       0.047367
     58 H22         -6.2830    -2.2090     0.5940 h1         1 GV2       0.047367
     59 H23         -8.1510     0.6230     1.6120 h4         1 GV2       0.209000
     60 H24         -7.0750     2.9770     0.8820 ha         1 GV2       0.206000
     61 H25         -4.2600     3.5510    -0.0940 ha         1 GV2       0.116000
     62 H26         -2.1310     2.4410    -0.5850 ha         1 GV2       0.118000
@<TRIPOS>BOND
     1     1     2 1   
     2     1     6 1   
     3     1    37 1   
     4     1    38 1   
     5     2     3 1   
     6     2    39 1   
     7     2    40 1   
     8     3     4 1   
     9     4     5 1   
    10     4    41 1   
    11     4    42 1   
    12     5     6 1   
    13     5    43 1   
    14     5    44 1   
    15     6     7 1   
    16     6    45 1   
    17     7     8 1   
    18     7    46 1   
    19     8     9 2   
    20     8    10 1   
    21    10    11 ar  
    22    10    15 ar  
    23    11    12 ar  
    24    11    47 1   
    25    12    13 ar  
    26    12    48 1   
    27    13    14 ar  
    28    14    15 ar  
    29    14    49 1   
    30    15    16 1   
    31    16    17 1   
    32    16    50 1   
    33    17    18 ar  
    34    17    19 ar  
    35    18    26 ar  
    36    18    51 1   
    37    19    20 ar  
    38    19    52 1   
    39    20    21 ar  
    40    20    25 ar  
    41    21    22 ar  
    42    22    23 ar  
    43    22    53 1   
    44    23    24 ar  
    45    23    54 1   
    46    24    25 ar  
    47    25    26 ar  
    48    26    27 1   
    49    27    28 ar  
    50    27    36 ar  
    51    28    29 ar  
    52    28    55 1   
    53    29    30 1   
    54    29    34 ar  
    55    30    31 1   
    56    30    32 1   
    57    31    56 1   
    58    31    57 1   
    59    31    58 1   
    60    32    33 2   
    61    32    59 1   
    62    33    34 1   
    63    33    60 1   
    64    34    35 ar  
    65    35    36 ar  
    66    35    61 1   
    67    36    62 1   
@<TRIPOS>SUBSTRUCTURE
     1 GV2         1 TEMP              0 ****  ****    0 ROOT
