@<TRIPOS>MOLECULE
GV3
   58    61     1     0     0
SMALL
No Charge or Current Charge


@<TRIPOS>ATOM
      1 N1          26.7100     2.5820    -3.2900 nb         1 GV3      -0.303000
      2 C7          21.3750    -1.7880    -0.4740 c5         1 GV3       0.111300
      3 C8          21.7290    -2.8670    -1.5630 c5         1 GV3       0.182300
      4 N2          23.6900    -0.1700    -2.9090 na         1 GV3      -0.284300
      5 C9          20.5350    -3.3480    -2.4310 c3         1 GV3       0.056600
      6 O1          22.0960    -1.9710     0.7510 oh         1 GV3      -0.712000
      7 C1          24.8520     1.2890    -4.0880 ca         1 GV3      -0.101600
      8 C5          23.1510    -1.0170    -1.8550 c5         1 GV3       0.320300
      9 C6          21.8670    -0.4790    -1.1490 c5         1 GV3       0.078300
     10 N3          23.9050     0.8110    -4.9880 nc         1 GV3      -0.559100
     11 C4          23.2220    -0.0710    -4.2310 cd         1 GV3       0.413700
     12 C3          26.5110     1.9550    -2.1060 ca         1 GV3       0.181900
     13 C2          24.7360     0.7120    -2.8480 ca         1 GV3       0.140500
     14 N4          15.5040    -3.5070    -5.2190 nu         1 GV3      -0.893400
     15 O2          22.1070     0.5540    -0.1680 oh         1 GV3      -0.695000
     16 O           22.7360    -2.2730    -2.4240 os         1 GV3      -0.448000
     17 N           25.5600     1.0310    -1.8300 nb         1 GV3      -0.216000
     18 C           25.8710     2.2450    -4.2810 ca         1 GV3       0.449900
     19 N7          26.0720     2.8710    -5.4710 nv         1 GV3      -1.066900
     20 C10         18.4330    -3.0160    -4.3120 c3         1 GV3       0.069600
     21 C11         17.5820    -2.1100    -5.2240 c3         1 GV3      -0.104400
     22 C12         16.5320    -2.8730    -6.0620 c3         1 GV3       0.211800
     23 C13         14.7020    -2.8220    -4.4230 c2         1 GV3       0.811100
     24 N6          14.4050    -3.3370    -3.3330 n2         1 GV3      -0.890100
     25 N5          13.7640    -2.2730    -5.1710 nu         1 GV3      -0.971200
     26 C14         12.4680    -1.8690    -4.8730 ca         1 GV3       0.294000
     27 C19         11.4100    -2.2600    -5.7090 ca         1 GV3      -0.155500
     28 C18         10.0940    -1.8550    -5.4240 ca         1 GV3      -0.080000
     29 C17          9.8360    -1.0500    -4.3010 ca         1 GV3      -0.134000
     30 C16         10.8930    -0.6480    -3.4670 ca         1 GV3      -0.080000
     31 C15         12.2070    -1.0560    -3.7550 ca         1 GV3      -0.155500
     32 H1          20.2930    -1.7510    -0.2800 h1         1 GV3       0.067700
     33 H2          22.1640    -3.7530    -1.0800 h1         1 GV3       0.091700
     34 H3          19.7860    -3.8080    -1.7740 h1         1 GV3       0.075700
     35 H4          20.8970    -4.1260    -3.1160 h1         1 GV3       0.075700
     36 H5          22.2900    -1.0400     1.0340 ho         1 GV3       0.526000
     37 H6          23.9530    -1.1850    -1.1230 h2         1 GV3       0.117700
     38 H7          21.1390    -0.1350    -1.8970 h1         1 GV3       0.068700
     39 H8          22.3810    -0.6670    -4.5690 h5         1 GV3       0.081800
     40 H9          27.1840     2.2210    -1.2920 h5         1 GV3       0.046100
     41 H10         15.7900    -4.3550    -4.7460 hn         1 GV3       0.481000
     42 H11         22.3020     1.3900    -0.6570 ho         1 GV3       0.516000
     43 H12         26.9750     3.3070    -5.6340 hn         1 GV3       0.506000
     44 H13         25.6010     2.4780    -6.2830 hn         1 GV3       0.506000
     45 H14         17.7920    -3.5100    -3.5700 h1         1 GV3       0.065200
     46 H15         18.9310    -3.7880    -4.9130 h1         1 GV3       0.065200
     47 H16         18.2510    -1.5830    -5.9140 hc         1 GV3       0.065200
     48 H17         17.0870    -1.3400    -4.6200 hc         1 GV3       0.065200
     49 H18         17.0420    -3.6370    -6.6660 h1         1 GV3       0.054200
     50 H19         16.0610    -2.1680    -6.7610 h1         1 GV3       0.054200
     51 H20         13.5060    -2.9110    -3.0890 hn         1 GV3       0.400400
     52 H21         13.8930    -2.6240    -6.1090 hn         1 GV3       0.490000
     53 H22         11.6040    -2.8830    -6.5780 ha         1 GV3       0.119000
     54 H23          9.2760    -2.1640    -6.0730 ha         1 GV3       0.114500
     55 H24          8.8180    -0.7350    -4.0800 ha         1 GV3       0.117000
     56 H25         10.6940    -0.0190    -2.6010 ha         1 GV3       0.114500
     57 H26         13.0230    -0.7310    -3.1150 ha         1 GV3       0.119000
     58 S           19.7130    -2.0120    -3.4330 ss         1 GV3      -0.469000
@<TRIPOS>BOND
     1     1    12 ar  
     2     1    18 ar  
     3     2     3 1   
     4     2     6 1   
     5     2     9 1   
     6     2    32 1   
     7     3     5 1   
     8     3    16 1   
     9     3    33 1   
    10     4     8 1   
    11     4    11 1   
    12     4    13 1   
    13     5    34 1   
    14     5    35 1   
    15     5    58 1   
    16     6    36 1   
    17     7    10 1   
    18     7    13 ar  
    19     7    18 ar  
    20     8     9 1   
    21     8    16 1   
    22     8    37 1   
    23     9    15 1   
    24     9    38 1   
    25    10    11 2   
    26    11    39 1   
    27    12    17 ar  
    28    12    40 1   
    29    13    17 ar  
    30    14    22 1   
    31    14    23 1   
    32    14    41 1   
    33    15    42 1   
    34    18    19 1   
    35    19    43 1   
    36    19    44 1   
    37    20    21 1   
    38    20    45 1   
    39    20    46 1   
    40    20    58 1   
    41    21    22 1   
    42    21    47 1   
    43    21    48 1   
    44    22    49 1   
    45    22    50 1   
    46    23    24 2   
    47    23    25 1   
    48    24    51 1   
    49    25    26 1   
    50    25    52 1   
    51    26    27 ar  
    52    26    31 ar  
    53    27    28 ar  
    54    27    53 1   
    55    28    29 ar  
    56    28    54 1   
    57    29    30 ar  
    58    29    55 1   
    59    30    31 ar  
    60    30    56 1   
    61    31    57 1   
@<TRIPOS>SUBSTRUCTURE
     1 GV3         1 TEMP              0 ****  ****    0 ROOT
