@<TRIPOS>MOLECULE
GV3
   58    61     1     0     0
SMALL
abcg2


@<TRIPOS>ATOM
      1 N1          26.4530     2.0500    -3.5500 nb         1 GV3      -0.303000
      2 C7          20.6930    -1.3410    -0.4610 c5         1 GV3       0.111300
      3 C8          21.1560    -2.5250    -1.3190 c5         1 GV3       0.182300
      4 N2          23.1370    -0.0690    -2.8740 na         1 GV3      -0.284300
      5 C9          20.1080    -3.1310    -2.2320 c3         1 GV3       0.056600
      6 O1          21.2800    -1.4630     0.8100 oh         1 GV3      -0.712000
      7 C1          24.3980     1.1150    -4.2090 ca         1 GV3      -0.101600
      8 C5          22.5890    -0.7460    -1.7320 c5         1 GV3       0.320300
      9 C6          21.2860    -0.1440    -1.2130 c5         1 GV3       0.078300
     10 N3          23.2990     0.7460    -4.9440 nc         1 GV3      -0.559100
     11 C4          22.5770     0.0480    -4.1200 cd         1 GV3       0.413700
     12 C3          26.2440     1.5040    -2.3550 ca         1 GV3       0.181900
     13 C2          24.3180     0.6160    -2.9190 ca         1 GV3       0.140500
     14 N4          15.9720    -4.1140    -5.8270 nu         1 GV3      -0.893400
     15 O2          21.5560     0.9730    -0.4190 oh         1 GV3      -0.695000
     16 O           22.2700    -2.0600    -2.0850 os         1 GV3      -0.448000
     17 N           25.2150     0.7800    -1.9500 nb         1 GV3      -0.216000
     18 C           25.5410     1.8770    -4.5140 ca         1 GV3       0.449900
     19 N7          25.7410     2.4320    -5.7100 nv         1 GV3      -1.066900
     20 C10         18.4100    -3.0580    -4.4140 c3         1 GV3       0.069600
     21 C11         17.6330    -2.2610    -5.4500 c3         1 GV3      -0.104400
     22 C12         16.8890    -3.1630    -6.4340 c3         1 GV3       0.211800
     23 C13         14.9350    -3.7280    -5.0110 c2         1 GV3       0.811100
     24 N6          14.6590    -4.4170    -3.9700 n2         1 GV3      -0.890100
     25 N5          14.2730    -2.6040    -5.4760 nu         1 GV3      -0.971200
     26 C14         13.2650    -1.9210    -4.7940 ca         1 GV3       0.294000
     27 C19         12.1520    -1.4660    -5.5010 ca         1 GV3      -0.155500
     28 C18         11.1590    -0.7410    -4.8590 ca         1 GV3      -0.080000
     29 C17         11.2500    -0.4720    -3.5000 ca         1 GV3      -0.134000
     30 C16         12.3600    -0.9190    -2.7960 ca         1 GV3      -0.080000
     31 C15         13.3690    -1.6270    -3.4320 ca         1 GV3      -0.155500
     32 H1          19.5990    -1.2880    -0.3980 h1         1 GV3       0.067700
     33 H2          21.4910    -3.3290    -0.6550 h1         1 GV3       0.091700
     34 H3          19.3240    -3.5710    -1.6130 h1         1 GV3       0.075700
     35 H4          20.5590    -3.9370    -2.8160 h1         1 GV3       0.075700
     36 H5          21.2990    -0.5860     1.2120 ho         1 GV3       0.526000
     37 H6          23.3580    -0.7010    -0.9510 h2         1 GV3       0.117700
     38 H7          20.6380     0.1130    -2.0600 h1         1 GV3       0.068700
     39 H8          21.6310    -0.4190    -4.3580 h5         1 GV3       0.081800
     40 H9          27.0220     1.6810    -1.6200 h5         1 GV3       0.046100
     41 H10         16.4190    -4.9460    -5.4740 hn         1 GV3       0.481000
     42 H11         20.7780     1.5410    -0.4010 ho         1 GV3       0.516000
     43 H12         26.5920     2.9340    -5.8990 hn         1 GV3       0.506000
     44 H13         25.0960     2.2850    -6.4660 hn         1 GV3       0.506000
     45 H14         17.7350    -3.6290    -3.7750 h1         1 GV3       0.065200
     46 H15         19.0940    -3.7590    -4.8970 h1         1 GV3       0.065200
     47 H16         18.3170    -1.6290    -6.0230 hc         1 GV3       0.065200
     48 H17         16.9280    -1.5920    -4.9510 hc         1 GV3       0.065200
     49 H18         17.6070    -3.7520    -7.0060 h1         1 GV3       0.054200
     50 H19         16.3680    -2.5420    -7.1650 h1         1 GV3       0.054200
     51 H20         13.7850    -4.1300    -3.5450 hn         1 GV3       0.400400
     52 H21         14.2650    -2.4890    -6.4780 hn         1 GV3       0.490000
     53 H22         12.0640    -1.6840    -6.5590 ha         1 GV3       0.119000
     54 H23         10.3050    -0.3960    -5.4260 ha         1 GV3       0.114500
     55 H24         10.4700     0.0840    -2.9970 ha         1 GV3       0.117000
     56 H25         12.4540    -0.7040    -1.7390 ha         1 GV3       0.114500
     57 H26         14.2410    -1.9370    -2.8720 ha         1 GV3       0.119000
     58 S           19.3720    -1.9270    -3.3740 ss         1 GV3      -0.469000
@<TRIPOS>BOND
     1     1    12 ar  
     2     1    18 ar  
     3     2     3 1   
     4     2     6 1   
     5     2     9 1   
     6     2    32 1   
     7     3     5 1   
     8     3    16 1   
     9     3    33 1   
    10     4     8 1   
    11     4    11 1   
    12     4    13 1   
    13     5    34 1   
    14     5    35 1   
    15     5    58 1   
    16     6    36 1   
    17     7    10 1   
    18     7    13 ar  
    19     7    18 ar  
    20     8     9 1   
    21     8    16 1   
    22     8    37 1   
    23     9    15 1   
    24     9    38 1   
    25    10    11 2   
    26    11    39 1   
    27    12    17 ar  
    28    12    40 1   
    29    13    17 ar  
    30    14    22 1   
    31    14    23 1   
    32    14    41 1   
    33    15    42 1   
    34    18    19 1   
    35    19    43 1   
    36    19    44 1   
    37    20    21 1   
    38    20    45 1   
    39    20    46 1   
    40    20    58 1   
    41    21    22 1   
    42    21    47 1   
    43    21    48 1   
    44    22    49 1   
    45    22    50 1   
    46    23    24 2   
    47    23    25 1   
    48    24    51 1   
    49    25    26 1   
    50    25    52 1   
    51    26    27 ar  
    52    26    31 ar  
    53    27    28 ar  
    54    27    53 1   
    55    28    29 ar  
    56    28    54 1   
    57    29    30 ar  
    58    29    55 1   
    59    30    31 ar  
    60    30    56 1   
    61    31    57 1   
@<TRIPOS>SUBSTRUCTURE
     1 GV3         1 TEMP              0 ****  ****    0 ROOT
