@<TRIPOS>MOLECULE
GV4
   26    26     1     0     0
SMALL
No Charge or Current Charge


@<TRIPOS>ATOM
      1 N1           2.7790     0.0260     0.2270 na         1 GV4       0.136800
      2 N3          -0.6300     0.4320    -0.5510 ns         1 GV4      -0.391100
      3 C4           1.6880     0.8660    -0.0000 cc         1 GV4      -0.123300
      4 C5           4.1510     0.4460     0.5540 c3         1 GV4       0.071900
      5 C6           1.7100     2.3740     0.0460 c3         1 GV4      -0.029800
      6 C7          -1.8500    -0.2100    -0.3980 c          1 GV4       0.609100
      7 C8          -3.0530     0.5760    -0.9030 c3         1 GV4      -0.109300
      8 C1           0.5410    -2.6430    -0.5060 c3         1 GV4      -0.121400
      9 C2           1.1980    -1.3240    -0.1930 cd         1 GV4       0.280300
     10 C3           0.6630    -0.0010    -0.2470 cd         1 GV4      -0.098400
     11 N2           2.4850    -1.3170     0.1040 nc         1 GV4      -0.517800
     12 O1          -1.9800    -1.3030     0.1330 o          1 GV4      -0.555100
     13 C9          -3.7510     1.2250     0.2020 c1         1 GV4       0.311900
     14 N4          -4.3150     1.7660     1.0650 n1         1 GV4      -0.436000
     15 H1          -0.7320     1.3900    -0.8660 hn         1 GV4       0.319500
     16 H2           4.1660     0.8920     1.5550 h1         1 GV4       0.057700
     17 H3           4.8260    -0.4170     0.5320 h1         1 GV4       0.057700
     18 H4           4.4900     1.1870    -0.1800 h1         1 GV4       0.057700
     19 H5           2.0130     2.7880    -0.9230 hc         1 GV4       0.052367
     20 H6           0.7230     2.7800     0.2940 hc         1 GV4       0.052367
     21 H7           2.4130     2.7400     0.8040 hc         1 GV4       0.052367
     22 H8          -2.7390     1.3570    -1.6040 hc         1 GV4       0.084700
     23 H9          -3.7550    -0.1110    -1.3860 hc         1 GV4       0.084700
     24 H10          0.0010    -3.0300     0.3650 hc         1 GV4       0.051033
     25 H11         -0.1610    -2.5470    -1.3410 hc         1 GV4       0.051033
     26 H12          1.2810    -3.3990    -0.7950 hc         1 GV4       0.051033
@<TRIPOS>BOND
     1     1     3 1   
     2     1     4 1   
     3     1    11 1   
     4     2     6 1   
     5     2    10 1   
     6     2    15 1   
     7     3     5 1   
     8     3    10 2   
     9     4    16 1   
    10     4    17 1   
    11     4    18 1   
    12     5    19 1   
    13     5    20 1   
    14     5    21 1   
    15     6     7 1   
    16     6    12 2   
    17     7    13 1   
    18     7    22 1   
    19     7    23 1   
    20     8     9 1   
    21     8    24 1   
    22     8    25 1   
    23     8    26 1   
    24     9    10 1   
    25     9    11 2   
    26    13    14 3   
@<TRIPOS>SUBSTRUCTURE
     1 GV4         1 TEMP              0 ****  ****    0 ROOT
