@<TRIPOS>MOLECULE
GV4
   26    26     1     0     0
SMALL
bcc


@<TRIPOS>ATOM
      1 N1           2.7780     0.0070     0.1560 na         1 GV4       0.115400
      2 N3          -0.5920     0.4530    -0.8170 ns         1 GV4      -0.458100
      3 C4           1.7520     0.8460    -0.0770 cc         1 GV4      -0.072600
      4 C5           4.0960     0.3550     0.6250 c3         1 GV4       0.042600
      5 C6           1.8370     2.3210     0.0550 c3         1 GV4      -0.029800
      6 C7          -1.6640     0.2730    -0.0230 c          1 GV4       0.676100
      7 C8          -2.9690     0.7320    -0.6620 c3         1 GV4      -0.109300
      8 C1           0.4440    -2.5390    -0.6870 c3         1 GV4      -0.121400
      9 C2           1.1830    -1.2820    -0.3900 cd         1 GV4       0.345600
     10 C3           0.6960     0.0370    -0.4450 cd         1 GV4      -0.163700
     11 N2           2.4470    -1.2780    -0.0150 nc         1 GV4      -0.517800
     12 O1          -1.6260    -0.2130     1.0880 o          1 GV4      -0.555100
     13 C9          -4.0680     0.6560     0.2800 c1         1 GV4       0.222700
     14 N4          -4.9530     0.6050     1.0110 n1         1 GV4      -0.346800
     15 H1          -0.7290     0.8530    -1.7330 hn         1 GV4       0.319500
     16 H2           4.1320     0.4000     1.7140 h1         1 GV4       0.057700
     17 H3           4.8020    -0.3960     0.2790 h1         1 GV4       0.057700
     18 H4           4.3910     1.3210     0.2230 h1         1 GV4       0.057700
     19 H5           2.5780     2.7460    -0.6250 hc         1 GV4       0.052367
     20 H6           0.8750     2.7720    -0.1810 hc         1 GV4       0.052367
     21 H7           2.1090     2.6200     1.0680 hc         1 GV4       0.052367
     22 H8          -2.8860     1.7560    -1.0330 hc         1 GV4       0.084700
     23 H9          -3.2040     0.1050    -1.5270 hc         1 GV4       0.084700
     24 H10         -0.3480    -2.7110     0.0430 hc         1 GV4       0.051033
     25 H11         -0.0290    -2.4970    -1.6690 hc         1 GV4       0.051033
     26 H12          1.1130    -3.3970    -0.6690 hc         1 GV4       0.051033
@<TRIPOS>BOND
     1     1     3 1   
     2     1     4 1   
     3     1    11 1   
     4     2     6 1   
     5     2    10 1   
     6     2    15 1   
     7     3     5 1   
     8     3    10 2   
     9     4    16 1   
    10     4    17 1   
    11     4    18 1   
    12     5    19 1   
    13     5    20 1   
    14     5    21 1   
    15     6     7 1   
    16     6    12 2   
    17     7    13 1   
    18     7    22 1   
    19     7    23 1   
    20     8     9 1   
    21     8    24 1   
    22     8    25 1   
    23     8    26 1   
    24     9    10 1   
    25     9    11 2   
    26    13    14 3   
@<TRIPOS>SUBSTRUCTURE
     1 GV4         1 TEMP              0 ****  ****    0 ROOT
