@<TRIPOS>MOLECULE
GV5
   51    54     1     0     0
SMALL
No Charge or Current Charge


@<TRIPOS>ATOM
      1 C10         -3.9370    -2.1210    -0.2180 ca         1 GV5       0.333000
      2 C11         -2.8960    -1.1820    -0.3620 ca         1 GV5      -0.180000
      3 C12         -2.1810     5.0590    -0.5390 ca         1 GV5       0.306900
      4 C13         -3.3150     4.2260    -0.4010 ca         1 GV5       0.287900
      5 C14          2.5690    -0.2800     0.8660 ca         1 GV5       0.346000
      6 C15          3.7900    -0.8160     0.4040 ca         1 GV5      -0.282500
      7 C16          4.3190    -1.9470     1.0770 ca         1 GV5      -0.046000
      8 N1          -0.9160     4.5740    -0.4360 nb         1 GV5      -0.631000
      9 C17          3.6370    -2.4900     2.1810 ca         1 GV5       0.289900
     10 C18          1.9650    -0.9010     2.0020 ca         1 GV5       0.283900
     11 C19          3.7690    -0.8470    -2.4080 c3         1 GV5      -0.335100
     12 S            4.6610    -0.1500    -1.0220 sy         1 GV5       1.062500
     13 O1           4.4440     1.3030    -1.0780 o          1 GV5      -0.526000
     14 C20         -2.6740    -3.9540    -1.4250 c3         1 GV5       0.220100
     15 C1          -0.4160     0.4990     0.2970 ca         1 GV5      -0.136000
     16 O            6.0150    -0.7160    -1.0610 o          1 GV5      -0.526000
     17 N3           2.4760    -1.9810     2.6510 nb         1 GV5      -0.606000
     18 C            0.6920     1.3410     0.1650 ca         1 GV5       0.304000
     19 C5           0.4960     2.7000    -0.0870 ca         1 GV5      -0.133000
     20 C4          -0.7950     3.2410    -0.1880 ca         1 GV5       0.251000
     21 N2          -3.2050     2.8950    -0.1540 nb         1 GV5      -0.609000
     22 C3          -1.9430     2.3860    -0.0370 ca         1 GV5       0.215000
     23 C2          -1.7390     0.9940     0.2130 cp         1 GV5       0.038000
     24 C6          -2.8740     0.0270     0.3750 cp         1 GV5       0.000000
     25 N4          -3.9370    -3.3240    -0.9720 nh         1 GV5      -0.831400
     26 C21         -5.2000    -4.0090    -1.3360 c3         1 GV5       0.220100
     27 C9          -4.9760    -1.8430     0.6920 ca         1 GV5      -0.180000
     28 C8          -4.9720    -0.6570     1.4420 ca         1 GV5      -0.072000
     29 C7          -3.9290     0.2670     1.2870 ca         1 GV5      -0.120000
     30 H1          -2.0960    -1.3740    -1.0700 ha         1 GV5       0.110000
     31 H2          -2.2890     6.1240    -0.7370 h4         1 GV5       0.031100
     32 H3          -4.3210     4.6320    -0.4910 h4         1 GV5       0.032100
     33 H4           5.2480    -2.4130     0.7580 ha         1 GV5       0.152000
     34 H5           4.0340    -3.3570     2.7070 h4         1 GV5       0.030100
     35 H6           1.0400    -0.5050     2.4180 h4         1 GV5       0.036100
     36 H7           2.7260    -0.5170    -2.3440 h1         1 GV5       0.107367
     37 H8           4.2350    -0.4840    -3.3300 h1         1 GV5       0.107367
     38 H9           3.8340    -1.9380    -2.3420 h1         1 GV5       0.107367
     39 H10         -1.8840    -3.8190    -0.6740 h1         1 GV5       0.034200
     40 H11         -2.8080    -5.0350    -1.5720 h1         1 GV5       0.034200
     41 H12         -2.3420    -3.5120    -2.3730 h1         1 GV5       0.034200
     42 H13         -0.2640    -0.5630     0.4610 ha         1 GV5       0.131000
     43 H14          2.6900     1.4390    -0.2240 hn         1 GV5       0.527000
     44 H15          1.3540     3.3550    -0.2020 ha         1 GV5       0.143000
     45 H16         -5.9910    -3.2760    -1.5430 h1         1 GV5       0.034200
     46 H17         -5.0670    -4.6170    -2.2410 h1         1 GV5       0.034200
     47 H18         -5.5300    -4.6660    -0.5200 h1         1 GV5       0.034200
     48 H19         -5.7860    -2.5520     0.8340 ha         1 GV5       0.112000
     49 H20         -5.7750    -0.4560     2.1490 ha         1 GV5       0.110000
     50 H21         -3.9310     1.1770     1.8840 ha         1 GV5       0.122000
     51 N            1.9950     0.8460     0.2430 nu         1 GV5      -1.005000
@<TRIPOS>BOND
     1     1     2 ar  
     2     1    25 1   
     3     1    27 ar  
     4     2    24 ar  
     5     2    30 1   
     6     3     4 ar  
     7     3     8 ar  
     8     3    31 1   
     9     4    21 ar  
    10     4    32 1   
    11     5     6 ar  
    12     5    10 ar  
    13     5    51 1   
    14     6     7 ar  
    15     6    12 1   
    16     7     9 ar  
    17     7    33 1   
    18     8    20 ar  
    19     9    17 ar  
    20     9    34 1   
    21    10    17 ar  
    22    10    35 1   
    23    11    12 1   
    24    11    36 1   
    25    11    37 1   
    26    11    38 1   
    27    12    13 2   
    28    12    16 2   
    29    14    25 1   
    30    14    39 1   
    31    14    40 1   
    32    14    41 1   
    33    15    18 ar  
    34    15    23 ar  
    35    15    42 1   
    36    18    19 ar  
    37    18    51 1   
    38    19    20 ar  
    39    19    44 1   
    40    20    22 ar  
    41    21    22 ar  
    42    22    23 ar  
    43    23    24 1   
    44    24    29 ar  
    45    25    26 1   
    46    26    45 1   
    47    26    46 1   
    48    26    47 1   
    49    27    28 ar  
    50    27    48 1   
    51    28    29 ar  
    52    28    49 1   
    53    29    50 1   
    54    43    51 1   
@<TRIPOS>SUBSTRUCTURE
     1 GV5         1 TEMP              0 ****  ****    0 ROOT
