@<TRIPOS>MOLECULE
GV5
   51    54     1     0     0
SMALL
abcg2


@<TRIPOS>ATOM
      1 C10         -3.7700    -2.0940    -0.3920 ca         1 GV5       0.333000
      2 C11         -2.7730    -1.1060    -0.4890 ca         1 GV5      -0.180000
      3 C12         -2.2040     5.0130    -0.3190 ca         1 GV5       0.306900
      4 C13         -3.3080     4.1390    -0.2040 ca         1 GV5       0.287900
      5 C14          2.4990    -0.1360     0.8270 ca         1 GV5       0.346000
      6 C15          3.5920    -0.9240     0.4490 ca         1 GV5      -0.282500
      7 C16          4.0430    -1.9340     1.2820 ca         1 GV5      -0.046000
      8 N1          -0.9740     4.5840    -0.2820 nb         1 GV5      -0.631000
      9 C17          3.3790    -2.1490     2.4760 ca         1 GV5       0.289900
     10 C18          1.9180    -0.4450     2.0660 ca         1 GV5       0.283900
     11 C19          3.2440    -1.1980    -2.3100 c3         1 GV5      -0.335100
     12 S            4.4280    -0.6610    -1.1020 sy         1 GV5       1.062500
     13 O1           4.6500     0.7780    -1.2600 o          1 GV5      -0.526000
     14 C20         -2.6300    -3.4290    -2.0720 c3         1 GV5       0.220100
     15 C1          -0.3680     0.5300     0.2100 ca         1 GV5      -0.136000
     16 O            5.5830    -1.5480    -1.1500 o          1 GV5      -0.526000
     17 N3           2.3370    -1.4160     2.8530 nb         1 GV5      -0.606000
     18 C            0.7380     1.4060     0.0790 ca         1 GV5       0.304000
     19 C5           0.5270     2.7530    -0.0770 ca         1 GV5      -0.133000
     20 C4          -0.7870     3.2530    -0.1150 ca         1 GV5       0.251000
     21 N2          -3.1540     2.8550    -0.0360 nb         1 GV5      -0.609000
     22 C3          -1.8950     2.3800     0.0290 ca         1 GV5       0.215000
     23 C2          -1.6610     0.9850     0.2030 cp         1 GV5       0.038000
     24 C6          -2.7750     0.0180     0.3290 cp         1 GV5       0.000000
     25 N4          -3.7660    -3.1870    -1.2160 nh         1 GV5      -0.831400
     26 C21         -4.7250    -4.2450    -1.0040 c3         1 GV5       0.220100
     27 C9          -4.7700    -1.9060     0.5800 ca         1 GV5      -0.180000
     28 C8          -4.7620    -0.7830     1.3910 ca         1 GV5      -0.072000
     29 C7          -3.7800     0.1890     1.2790 ca         1 GV5      -0.120000
     30 H1          -1.9910    -1.1980    -1.2300 ha         1 GV5       0.110000
     31 H2          -2.3670     6.0770    -0.4480 h4         1 GV5       0.031100
     32 H3          -4.3180     4.5280    -0.2600 h4         1 GV5       0.032100
     33 H4           4.8880    -2.5510     1.0100 ha         1 GV5       0.152000
     34 H5           3.7050    -2.9300     3.1510 h4         1 GV5       0.030100
     35 H6           1.0810     0.1430     2.4260 h4         1 GV5       0.036100
     36 H7           2.3340    -0.6100    -2.2220 h1         1 GV5       0.107367
     37 H8           3.6950    -1.0400    -3.2900 h1         1 GV5       0.107367
     38 H9           3.0360    -2.2550    -2.1590 h1         1 GV5       0.107367
     39 H10         -1.6930    -3.5330    -1.5130 h1         1 GV5       0.034200
     40 H11         -2.7870    -4.3500    -2.6270 h1         1 GV5       0.034200
     41 H12         -2.4940    -2.6290    -2.8040 h1         1 GV5       0.034200
     42 H13         -0.1920    -0.5330     0.3140 ha         1 GV5       0.131000
     43 H14          2.7230     1.4740    -0.4090 hn         1 GV5       0.527000
     44 H15          1.3550     3.4450    -0.1720 ha         1 GV5       0.143000
     45 H16         -5.7510    -3.8840    -1.1030 h1         1 GV5       0.034200
     46 H17         -4.5780    -5.0130    -1.7580 h1         1 GV5       0.034200
     47 H18         -4.6280    -4.7170    -0.0210 h1         1 GV5       0.034200
     48 H19         -5.5590    -2.6330     0.7070 ha         1 GV5       0.112000
     49 H20         -5.5420    -0.6720     2.1340 ha         1 GV5       0.110000
     50 H21         -3.7840     1.0520     1.9300 ha         1 GV5       0.122000
     51 N            2.0280     0.8920     0.0370 nu         1 GV5      -1.005000
@<TRIPOS>BOND
     1     1     2 ar  
     2     1    25 1   
     3     1    27 ar  
     4     2    24 ar  
     5     2    30 1   
     6     3     4 ar  
     7     3     8 ar  
     8     3    31 1   
     9     4    21 ar  
    10     4    32 1   
    11     5     6 ar  
    12     5    10 ar  
    13     5    51 1   
    14     6     7 ar  
    15     6    12 1   
    16     7     9 ar  
    17     7    33 1   
    18     8    20 ar  
    19     9    17 ar  
    20     9    34 1   
    21    10    17 ar  
    22    10    35 1   
    23    11    12 1   
    24    11    36 1   
    25    11    37 1   
    26    11    38 1   
    27    12    13 2   
    28    12    16 2   
    29    14    25 1   
    30    14    39 1   
    31    14    40 1   
    32    14    41 1   
    33    15    18 ar  
    34    15    23 ar  
    35    15    42 1   
    36    18    19 ar  
    37    18    51 1   
    38    19    20 ar  
    39    19    44 1   
    40    20    22 ar  
    41    21    22 ar  
    42    22    23 ar  
    43    23    24 1   
    44    24    29 ar  
    45    25    26 1   
    46    26    45 1   
    47    26    46 1   
    48    26    47 1   
    49    27    28 ar  
    50    27    48 1   
    51    28    29 ar  
    52    28    49 1   
    53    29    50 1   
    54    43    51 1   
@<TRIPOS>SUBSTRUCTURE
     1 GV5         1 TEMP              0 ****  ****    0 ROOT
