@<TRIPOS>MOLECULE
GV7
   29    31     1     0     0
SMALL
No Charge or Current Charge


@<TRIPOS>ATOM
      1 N1           1.3060     0.5760    -0.1640 na         1 GV7       0.044900
      2 N3           2.7120     2.2670     0.1140 nc         1 GV7      -0.392300
      3 C4           0.9860    -0.7880    -0.2400 cc         1 GV7       0.404000
      4 C5           2.6040     0.9670     0.0920 cd         1 GV7       0.440500
      5 C6           1.4330     2.6570    -0.1520 cc         1 GV7       0.542200
      6 C7          -1.5650    -0.7990    -0.1890 ca         1 GV7       0.243000
      7 C8          -1.8050     0.0030     0.9450 ca         1 GV7      -0.071500
      8 C10         -4.1760     0.1010     0.4010 ca         1 GV7       0.140100
      9 C2           3.3600    -1.1060     0.2090 cc         1 GV7       0.445300
     10 C3           2.0890    -1.5920    -0.0480 cd         1 GV7      -0.335000
     11 N2           3.7100     0.1740     0.3000 nd         1 GV7      -0.676000
     12 N4           0.5260     1.7050    -0.3410 nd         1 GV7      -0.596100
     13 N5          -0.2830    -1.2790    -0.4830 nu         1 GV7      -0.966000
     14 C9          -3.1060     0.4540     1.2360 ca         1 GV7      -0.160500
     15 C11         -3.9500    -0.7100    -0.7240 ca         1 GV7      -0.160500
     16 C12         -2.6480    -1.1620    -1.0130 ca         1 GV7      -0.071500
     17 O1          -5.4320     0.5430     0.6910 oh         1 GV7      -0.529100
     18 H1           1.2140     3.7170    -0.2020 h5         1 GV7       0.070800
     19 H2          -0.9860     0.2710     1.6050 ha         1 GV7       0.122500
     20 H3           4.5930    -2.7250    -0.4790 hc         1 GV7       0.059367
     21 H4           5.4350    -1.6000     0.5990 hc         1 GV7       0.059367
     22 H5           4.2600    -2.7460     1.2630 hc         1 GV7       0.059367
     23 H6           1.9520    -2.6660    -0.0890 ha         1 GV7       0.135000
     24 H7          -0.2670    -2.1750    -0.9730 hn         1 GV7       0.502000
     25 H8          -3.2820     1.0750     2.1110 ha         1 GV7       0.126500
     26 H9          -4.7730    -0.9950    -1.3750 ha         1 GV7       0.126500
     27 H10         -2.4790    -1.7890    -1.8850 ha         1 GV7       0.122500
     28 H11         -6.0500     0.2020     0.0090 ho         1 GV7       0.467000
     29 C1           4.4740    -2.0930     0.4090 c3         1 GV7      -0.152400
@<TRIPOS>BOND
     1     1     3 1   
     2     1     4 1   
     3     1    12 1   
     4     2     4 2   
     5     2     5 1   
     6     3    10 2   
     7     3    13 1   
     8     4    11 1   
     9     5    12 2   
    10     5    18 1   
    11     6     7 ar  
    12     6    13 1   
    13     6    16 ar  
    14     7    14 ar  
    15     7    19 1   
    16     8    14 ar  
    17     8    15 ar  
    18     8    17 1   
    19     9    10 1   
    20     9    11 2   
    21     9    29 1   
    22    10    23 1   
    23    13    24 1   
    24    14    25 1   
    25    15    16 ar  
    26    15    26 1   
    27    16    27 1   
    28    17    28 1   
    29    20    29 1   
    30    21    29 1   
    31    22    29 1   
@<TRIPOS>SUBSTRUCTURE
     1 GV7         1 TEMP              0 ****  ****    0 ROOT
