@<TRIPOS>MOLECULE
GV7
   29    31     1     0     0
SMALL
abcg2


@<TRIPOS>ATOM
      1 N1           1.2150     0.4410    -0.2230 na         1 GV7       0.044900
      2 N3           2.4000     2.2730    -0.0260 nc         1 GV7      -0.392300
      3 C4           0.9740    -0.8970    -0.2400 cc         1 GV7       0.404000
      4 C5           2.4680     0.9530     0.0440 cd         1 GV7       0.440500
      5 C6           1.1180     2.4980    -0.3500 cc         1 GV7       0.542200
      6 C7          -1.5000    -0.8090    -0.2010 ca         1 GV7       0.243000
      7 C8          -1.7200    -0.1600     1.0090 ca         1 GV7      -0.071500
      8 C10         -4.0270     0.2000     0.4190 ca         1 GV7       0.140100
      9 C2           3.3300    -1.1150     0.2520 cc         1 GV7       0.445300
     10 C3           2.0790    -1.6940    -0.0000 cd         1 GV7      -0.335000
     11 N2           3.5280     0.1910     0.2890 nd         1 GV7      -0.676000
     12 N4           0.3540     1.4390    -0.4910 nd         1 GV7      -0.596100
     13 N5          -0.2480    -1.3840    -0.5230 nu         1 GV7      -0.966000
     14 C9          -2.9680     0.3530     1.3130 ca         1 GV7      -0.160500
     15 C11         -3.8120    -0.4670    -0.7840 ca         1 GV7      -0.160500
     16 C12         -2.5530    -0.9580    -1.0920 ca         1 GV7      -0.071500
     17 O1          -5.2250     0.7060     0.7700 oh         1 GV7      -0.529100
     18 H1           0.7160     3.4900    -0.4970 h5         1 GV7       0.070800
     19 H2          -0.9200    -0.0580     1.7310 ha         1 GV7       0.122500
     20 H3           4.9390    -2.3100    -0.4720 hc         1 GV7       0.059367
     21 H4           5.2860    -1.4760     1.0420 hc         1 GV7       0.059367
     22 H5           4.2350    -2.9040     1.0240 hc         1 GV7       0.059367
     23 H6           1.9590    -2.7680     0.0160 ha         1 GV7       0.135000
     24 H7          -0.2590    -2.3810    -0.6860 hn         1 GV7       0.502000
     25 H8          -3.1300     0.8620     2.2550 ha         1 GV7       0.126500
     26 H9          -4.6240    -0.6000    -1.4900 ha         1 GV7       0.126500
     27 H10         -2.3940    -1.4640    -2.0360 ha         1 GV7       0.122500
     28 H11         -5.8810     0.5250     0.0880 ho         1 GV7       0.467000
     29 C1           4.5130    -2.0000     0.4850 c3         1 GV7      -0.152400
@<TRIPOS>BOND
     1     1     3 1   
     2     1     4 1   
     3     1    12 1   
     4     2     4 2   
     5     2     5 1   
     6     3    10 2   
     7     3    13 1   
     8     4    11 1   
     9     5    12 2   
    10     5    18 1   
    11     6     7 ar  
    12     6    13 1   
    13     6    16 ar  
    14     7    14 ar  
    15     7    19 1   
    16     8    14 ar  
    17     8    15 ar  
    18     8    17 1   
    19     9    10 1   
    20     9    11 2   
    21     9    29 1   
    22    10    23 1   
    23    13    24 1   
    24    14    25 1   
    25    15    16 ar  
    26    15    26 1   
    27    16    27 1   
    28    17    28 1   
    29    20    29 1   
    30    21    29 1   
    31    22    29 1   
@<TRIPOS>SUBSTRUCTURE
     1 GV7         1 TEMP              0 ****  ****    0 ROOT
