@<TRIPOS>MOLECULE
GV8
   49    53     1     0     0
SMALL
No Charge or Current Charge


@<TRIPOS>ATOM
      1 CBE         -3.9750    -1.0090     2.3750 c3         1 GV8      -0.335100
      2 SBB         -4.8660    -0.4220     0.9380 sy         1 GV8       1.061500
      3 OBC         -6.1760    -1.0840     0.9530 o          1 GV8      -0.525500
      4 OBD         -4.7550     1.0430     0.9530 o          1 GV8      -0.525500
      5 CBA         -3.9000    -1.0680    -0.4360 ca         1 GV8      -0.280500
      6 CAZ         -4.3230    -2.2540    -1.0860 ca         1 GV8      -0.046000
      7 CAY         -3.5660    -2.7800    -2.1490 ca         1 GV8       0.291900
      8 NAX         -2.4300    -2.2020    -2.5990 nb         1 GV8      -0.607000
      9 CAW         -2.0200    -1.0690    -1.9710 ca         1 GV8       0.283900
     10 CAM         -2.7060    -0.4580    -0.8760 ca         1 GV8       0.344000
     11 NAL         -2.2360     0.7260    -0.2730 nu         1 GV8      -1.003000
     12 CAI         -0.9770     1.3180    -0.1730 ca         1 GV8       0.308000
     13 CAH          0.1940     0.5560    -0.2400 ca         1 GV8      -0.137000
     14 CAJ         -0.8880     2.6950     0.0360 ca         1 GV8      -0.135000
     15 CAE          0.3560     3.3340     0.1580 ca         1 GV8       0.254000
     16 NAF          0.3720     4.6790     0.3610 nb         1 GV8      -0.630000
     17 CAA          1.5940     5.2590     0.4850 ca         1 GV8       0.307900
     18 CAB          2.7890     4.5090     0.4120 ca         1 GV8       0.288900
     19 NAC          2.7850     3.1650     0.2090 nb         1 GV8      -0.614000
     20 CAD          1.5670     2.5610     0.0730 ca         1 GV8       0.211000
     21 CAG          1.4740     1.1490    -0.1330 cp         1 GV8       0.040000
     22 CAK          2.6800     0.2640    -0.2240 cp         1 GV8      -0.062000
     23 CAR          2.7580    -0.9200     0.5630 ca         1 GV8      -0.045000
     24 CAQ          3.8870    -1.7400     0.4430 ca         1 GV8      -0.119800
     25 CAU          4.2310    -2.9820     1.1110 cc         1 GV8      -0.129400
     26 CAV          3.4200    -3.7210     2.1390 c3         1 GV8      -0.019900
     27 CAT          5.4710    -3.3170     0.5760 cd         1 GV8      -0.071900
     28 OAS          5.8710    -2.3750    -0.3410 os         1 GV8      -0.169200
     29 CAP          4.9070    -1.4200    -0.4180 ca         1 GV8       0.071100
     30 CAO          4.8840    -0.2780    -1.2210 ca         1 GV8      -0.109000
     31 CAN          3.7560     0.5640    -1.1180 ca         1 GV8      -0.050000
     32 H1          -4.4970    -0.6530     3.2690 h1         1 GV8       0.107700
     33 H2          -3.9600    -2.1030     2.3450 h1         1 GV8       0.107700
     34 H3          -2.9570    -0.6060     2.3340 h1         1 GV8       0.107700
     35 H4          -5.2270    -2.7770    -0.7810 ha         1 GV8       0.153000
     36 H5          -3.8820    -3.6910    -2.6580 h4         1 GV8       0.031100
     37 H6          -1.1120    -0.6190    -2.3690 h4         1 GV8       0.035100
     38 H7          -2.9870     1.2820     0.1520 hn         1 GV8       0.527000
     39 H8           0.1250    -0.5190    -0.3700 ha         1 GV8       0.131000
     40 H9          -1.7950     3.2880     0.1010 ha         1 GV8       0.144000
     41 H10          1.6170     6.3360     0.6480 h4         1 GV8       0.032100
     42 H11          3.7600     4.9900     0.5170 h4         1 GV8       0.033100
     43 H12          1.9590    -1.1840     1.2520 ha         1 GV8       0.118000
     44 H13          2.4430    -4.0080     1.7320 hc         1 GV8       0.042700
     45 H14          3.9320    -4.6340     2.4650 hc         1 GV8       0.042700
     46 H15          3.2490    -3.0950     3.0230 hc         1 GV8       0.042700
     47 H16          6.1300    -4.1600     0.7640 h4         1 GV8       0.238000
     48 H17          5.7020    -0.0510    -1.8990 ha         1 GV8       0.133000
     49 H18          3.7050     1.4540    -1.7400 ha         1 GV8       0.125000
@<TRIPOS>BOND
     1     1     2 1   
     2     1    32 1   
     3     1    33 1   
     4     1    34 1   
     5     2     3 2   
     6     2     4 2   
     7     2     5 1   
     8     5     6 ar  
     9     5    10 ar  
    10     6     7 ar  
    11     6    35 1   
    12     7     8 ar  
    13     7    36 1   
    14     8     9 ar  
    15     9    10 ar  
    16     9    37 1   
    17    10    11 1   
    18    11    12 1   
    19    11    38 1   
    20    12    13 ar  
    21    12    14 ar  
    22    13    21 ar  
    23    13    39 1   
    24    14    15 ar  
    25    14    40 1   
    26    15    16 ar  
    27    15    20 ar  
    28    16    17 ar  
    29    17    18 ar  
    30    17    41 1   
    31    18    19 ar  
    32    18    42 1   
    33    19    20 ar  
    34    20    21 ar  
    35    21    22 1   
    36    22    23 ar  
    37    22    31 ar  
    38    23    24 ar  
    39    23    43 1   
    40    24    25 1   
    41    24    29 ar  
    42    25    26 1   
    43    25    27 2   
    44    26    44 1   
    45    26    45 1   
    46    26    46 1   
    47    27    28 1   
    48    27    47 1   
    49    28    29 1   
    50    29    30 ar  
    51    30    31 ar  
    52    30    48 1   
    53    31    49 1   
@<TRIPOS>SUBSTRUCTURE
     1 GV8         1 TEMP              0 ****  ****    0 ROOT
