@<TRIPOS>MOLECULE
GV8
   49    53     1     0     0
SMALL
bcc


@<TRIPOS>ATOM
      1 CBE         -3.5740    -1.1490     2.3490 c3         1 GV8      -0.224300
      2 SBB         -4.7040    -0.7810     1.0310 sy         1 GV8       1.092300
      3 OBC         -5.8040    -1.7370     1.0780 o          1 GV8      -0.596300
      4 OBD         -5.0240     0.6470     1.0630 o          1 GV8      -0.596300
      5 CBA         -3.7610    -1.1020    -0.4460 ca         1 GV8      -0.280500
      6 CAZ         -4.1150    -2.1850    -1.2320 ca         1 GV8      -0.129300
      7 CAY         -3.3770    -2.4390    -2.3750 ca         1 GV8       0.357200
      8 NAX         -2.3570    -1.6750    -2.7460 nb         1 GV8      -0.607000
      9 CAW         -2.0300    -0.6350    -2.0050 ca         1 GV8       0.349200
     10 CAM         -2.6890    -0.2820    -0.8170 ca         1 GV8       0.140300
     11 NAL         -2.3130     0.8160    -0.0710 nu         1 GV8      -0.671000
     12 CAI         -1.0520     1.3970    -0.0780 ca         1 GV8       0.169600
     13 CAH          0.1060     0.5820    -0.1400 ca         1 GV8      -0.155000
     14 CAJ         -0.9220     2.7590     0.0380 ca         1 GV8      -0.218300
     15 CAE          0.3590     3.3340     0.0980 ca         1 GV8       0.319300
     16 NAF          0.4660     4.6780     0.2220 nb         1 GV8      -0.630000
     17 CAA          1.6690     5.1780     0.2760 ca         1 GV8       0.307900
     18 CAB          2.8230     4.3660     0.2230 ca         1 GV8       0.288900
     19 NAC          2.7470     3.0700     0.0980 nb         1 GV8      -0.614000
     20 CAD          1.5190     2.5220     0.0180 ca         1 GV8       0.276300
     21 CAG          1.3700     1.1110    -0.1120 cp         1 GV8      -0.025300
     22 CAK          2.5410     0.2100    -0.1790 cp         1 GV8      -0.062000
     23 CAR          2.6030    -0.8920     0.6650 ca         1 GV8      -0.063000
     24 CAQ          3.6850    -1.7630     0.5560 ca         1 GV8      -0.119800
     25 CAU          4.0880    -2.9690     1.2350 cc         1 GV8      -0.129400
     26 CAV          3.3680    -3.6590     2.3390 c3         1 GV8      -0.019900
     27 CAT          5.2480    -3.3280     0.6470 cd         1 GV8      -0.021900
     28 OAS          5.6250    -2.4650    -0.3390 os         1 GV8      -0.169200
     29 CAP          4.6730    -1.5110    -0.3950 ca         1 GV8       0.071100
     30 CAO          4.6380    -0.4250    -1.2520 ca         1 GV8      -0.127000
     31 CAN          3.5590     0.4310    -1.1260 ca         1 GV8      -0.068000
     32 H1          -4.1100    -0.9750     3.2830 h1         1 GV8       0.107700
     33 H2          -3.2700    -2.1900     2.2800 h1         1 GV8       0.107700
     34 H3          -2.7100    -0.4910     2.2920 h1         1 GV8       0.107700
     35 H4          -4.9410    -2.8290    -0.9640 ha         1 GV8       0.171000
     36 H5          -3.6260    -3.2790    -3.0120 h4         1 GV8       0.031100
     37 H6          -1.2080    -0.0250    -2.3630 h4         1 GV8       0.035100
     38 H7          -3.0600     1.3840     0.3020 hn         1 GV8       0.471800
     39 H8          -0.0070    -0.4920    -0.2120 ha         1 GV8       0.149000
     40 H9          -1.7890     3.4050     0.0810 ha         1 GV8       0.162000
     41 H10          1.7670     6.2540     0.3700 h4         1 GV8       0.032100
     42 H11          3.8080     4.8150     0.2900 h4         1 GV8       0.033100
     43 H12          1.8320    -1.0610     1.4060 ha         1 GV8       0.136000
     44 H13          2.3630    -3.9510     2.0300 hc         1 GV8       0.042700
     45 H14          3.8950    -4.5570     2.6550 hc         1 GV8       0.042700
     46 H15          3.2610    -3.0080     3.2080 hc         1 GV8       0.042700
     47 H16          5.9110    -4.1610     0.8230 h4         1 GV8       0.188000
     48 H17          5.4090    -0.2520    -1.9910 ha         1 GV8       0.151000
     49 H18          3.4900     1.2840    -1.7870 ha         1 GV8       0.143000
@<TRIPOS>BOND
     1     1     2 1   
     2     1    32 1   
     3     1    33 1   
     4     1    34 1   
     5     2     3 2   
     6     2     4 2   
     7     2     5 1   
     8     5     6 ar  
     9     5    10 ar  
    10     6     7 ar  
    11     6    35 1   
    12     7     8 ar  
    13     7    36 1   
    14     8     9 ar  
    15     9    10 ar  
    16     9    37 1   
    17    10    11 1   
    18    11    12 1   
    19    11    38 1   
    20    12    13 ar  
    21    12    14 ar  
    22    13    21 ar  
    23    13    39 1   
    24    14    15 ar  
    25    14    40 1   
    26    15    16 ar  
    27    15    20 ar  
    28    16    17 ar  
    29    17    18 ar  
    30    17    41 1   
    31    18    19 ar  
    32    18    42 1   
    33    19    20 ar  
    34    20    21 ar  
    35    21    22 1   
    36    22    23 ar  
    37    22    31 ar  
    38    23    24 ar  
    39    23    43 1   
    40    24    25 1   
    41    24    29 ar  
    42    25    26 1   
    43    25    27 2   
    44    26    44 1   
    45    26    45 1   
    46    26    46 1   
    47    27    28 1   
    48    27    47 1   
    49    28    29 1   
    50    29    30 ar  
    51    30    31 ar  
    52    30    48 1   
    53    31    49 1   
@<TRIPOS>SUBSTRUCTURE
     1 GV8         1 TEMP              0 ****  ****    0 ROOT
