@<TRIPOS>MOLECULE
GV9
   18    18     1     0     0
SMALL
bcc


@<TRIPOS>ATOM
      1 O11         -3.1730    -0.9890     0.1100 o          1 GV9      -0.649100
      2 C10         -2.7400     0.1530     0.0740 c          1 GV9       0.667100
      3 C12         -3.6580     1.3490     0.0850 c3         1 GV9      -0.175100
      4 N9          -1.4260     0.4600     0.0180 ns         1 GV9      -0.446100
      5 C3          -0.3390    -0.4040    -0.0090 cc         1 GV9       0.019600
      6 C4          -0.3630    -1.8310     0.0230 cc         1 GV9      -0.155000
      7 C5           0.8940    -2.3570    -0.0170 cd         1 GV9      -0.181100
      8 S1           2.1060    -1.1560    -0.0900 ss         1 GV9      -0.061800
      9 C2           0.9390     0.1040    -0.0700 cd         1 GV9      -0.154700
     10 C6           1.3910     1.5280    -0.1170 c          1 GV9       0.955200
     11 O7           0.4900     2.4020    -0.1040 o          1 GV9      -0.824300
     12 O8           2.6180     1.7140    -0.1640 o          1 GV9      -0.824300
     13 H12         -4.2890     1.3120     0.9730 hc         1 GV9       0.050700
     14 H12A        -3.1350     2.3040     0.0730 hc         1 GV9       0.050700
     15 H12B        -4.3160     1.3070    -0.7830 hc         1 GV9       0.050700
     16 HN9         -1.1260     1.4360    -0.0170 hn         1 GV9       0.381500
     17 H4          -1.2540    -2.4330     0.0720 ha         1 GV9       0.156000
     18 H5           1.1540    -3.4050    -0.0060 h4         1 GV9       0.139000
@<TRIPOS>BOND
     1     1     2 2   
     2     2     3 1   
     3     2     4 1   
     4     3    13 1   
     5     3    14 1   
     6     3    15 1   
     7     4     5 1   
     8     4    16 1   
     9     5     6 1   
    10     5     9 2   
    11     6     7 2   
    12     6    17 1   
    13     7     8 1   
    14     7    18 1   
    15     8     9 1   
    16     9    10 1   
    17    10    11 1   
    18    10    12 1   
@<TRIPOS>SUBSTRUCTURE
     1 GV9         1 TEMP              0 ****  ****    0 ROOT
