@<TRIPOS>MOLECULE
GV9
   18    18     1     0     0
SMALL
No Charge or Current Charge


@<TRIPOS>ATOM
      1 O11         -3.2250    -0.9960     0.3210 o          1 GV9      -0.649100
      2 C10         -2.7670     0.1300     0.1800 c          1 GV9       0.600100
      3 C12         -3.6650     1.3640     0.1610 c3         1 GV9      -0.175100
      4 N9          -1.4250     0.4120     0.0250 ns         1 GV9      -0.379100
      5 C3          -0.3150    -0.4210    -0.0110 cc         1 GV9       0.019600
      6 C4          -0.3200    -1.8380     0.1120 cc         1 GV9      -0.137000
      7 C5           0.9210    -2.4120     0.0400 cd         1 GV9      -0.308000
      8 S1           2.1800    -1.1890    -0.1870 ss         1 GV9       0.228000
      9 C2           0.9540     0.0930    -0.1780 cd         1 GV9      -0.299600
     10 C6           1.3130     1.5280    -0.3370 c          1 GV9       0.744600
     11 O7           0.4270     2.3720    -0.3230 o          1 GV9      -0.719000
     12 O8           2.4920     1.8140    -0.4760 o          1 GV9      -0.719000
     13 H12         -4.7260     1.1190     0.2860 hc         1 GV9       0.050700
     14 H12A        -3.3220     2.0690     0.9280 hc         1 GV9       0.050700
     15 H12B        -3.4870     1.9240    -0.7640 hc         1 GV9       0.050700
     16 HN9         -1.2210     1.4040    -0.0800 hn         1 GV9       0.381500
     17 H4          -1.2260    -2.4190     0.2500 ha         1 GV9       0.138000
     18 H5           1.1830    -3.4610     0.1050 h4         1 GV9       0.121000
@<TRIPOS>BOND
     1     1     2 2   
     2     2     3 1   
     3     2     4 1   
     4     3    13 1   
     5     3    14 1   
     6     3    15 1   
     7     4     5 1   
     8     4    16 1   
     9     5     6 1   
    10     5     9 2   
    11     6     7 2   
    12     6    17 1   
    13     7     8 1   
    14     7    18 1   
    15     8     9 1   
    16     9    10 1   
    17    10    11 1   
    18    10    12 1   
@<TRIPOS>SUBSTRUCTURE
     1 GV9         1 TEMP              0 ****  ****    0 ROOT
