@<TRIPOS>MOLECULE
GVA
   23    22     1     0     0
SMALL
abcg2


@<TRIPOS>ATOM
      1 OB          16.9050    59.4050    44.3290 o          1 GVA      -0.742500
      2 C           15.8770    60.1080    44.5210 c          1 GVA       0.704000
      3 OA          14.7640    59.6860    44.9290 o          1 GVA      -0.742500
      4 CA          15.9980    61.6070    44.1730 c3         1 GVA      -0.206400
      5 CB          15.1060    62.5440    44.9800 c3         1 GVA      -0.042400
      6 CG          15.5120    62.6340    46.4490 c3         1 GVA      -0.088400
      7 CD          14.5780    63.5290    47.2500 c3         1 GVA       0.228800
      8 NE          15.0110    63.6110    48.6380 nu         1 GVA      -0.978400
      9 CZ          14.3220    64.1960    49.6580 c2         1 GVA       0.819100
     10 NH2         13.1100    64.7570    49.3040 nv         1 GVA      -1.027200
     11 NH1         14.6930    64.2180    50.9020 n2         1 GVA      -0.947100
     12 HA1         17.0470    61.8990    44.2700 hc         1 GVA       0.021700
     13 HA2         15.7510    61.6960    43.1090 hc         1 GVA       0.021700
     14 HB1         15.1390    63.5470    44.5400 hc         1 GVA       0.020700
     15 HB2         14.0720    62.2010    44.9110 hc         1 GVA       0.020700
     16 HG1         15.5150    61.6340    46.8930 hc         1 GVA       0.052700
     17 HG2         16.5340    63.0220    46.5240 hc         1 GVA       0.052700
     18 HD1         14.5530    64.5270    46.7940 h1         1 GVA       0.029200
     19 HD2         13.5610    63.1270    47.2060 h1         1 GVA       0.029200
     20 HNE         15.9050    63.2120    48.8710 hn         1 GVA       0.489000
     21 HH21        12.7240    65.3580    50.0160 hn         1 GVA       0.457000
     22 HH22        13.0330    65.1410    48.3740 hn         1 GVA       0.457000
     23 HNH1        15.5560    63.6930    51.0200 hn         1 GVA       0.369400
@<TRIPOS>BOND
     1     1     2 1   
     2     2     3 1   
     3     2     4 1   
     4     4     5 1   
     5     4    12 1   
     6     4    13 1   
     7     5     6 1   
     8     5    14 1   
     9     5    15 1   
    10     6     7 1   
    11     6    16 1   
    12     6    17 1   
    13     7     8 1   
    14     7    18 1   
    15     7    19 1   
    16     8     9 1   
    17     8    20 1   
    18     9    10 1   
    19     9    11 2   
    20    10    21 1   
    21    10    22 1   
    22    11    23 1   
@<TRIPOS>SUBSTRUCTURE
     1 GVA         1 TEMP              0 ****  ****    0 ROOT
