@<TRIPOS>MOLECULE
GVA
   23    22     1     0     0
SMALL
No Charge or Current Charge


@<TRIPOS>ATOM
      1 OB          17.5430    60.5230    45.2770 o          1 GVA      -0.742500
      2 C           16.5210    60.4060    44.6180 c          1 GVA       0.704000
      3 OA          15.9930    59.3310    44.3770 o          1 GVA      -0.742500
      4 CA          15.8450    61.6820    44.0800 c3         1 GVA      -0.206400
      5 CB          14.7510    62.2030    45.0480 c3         1 GVA      -0.042400
      6 CG          15.2810    62.7220    46.4050 c3         1 GVA      -0.088400
      7 CD          14.1650    63.2890    47.3040 c3         1 GVA       0.228800
      8 NE          14.7200    63.7800    48.5700 nu         1 GVA      -0.978400
      9 CZ          13.9560    64.3230    49.4810 c2         1 GVA       0.819100
     10 NH2         14.3060    65.5470    49.3380 nv         1 GVA      -1.027200
     11 NH1         14.0260    63.7990    50.5960 n2         1 GVA      -0.947100
     12 HA1         16.5750    62.4940    43.9730 hc         1 GVA       0.021700
     13 HA2         15.3090    61.4540    43.1510 hc         1 GVA       0.021700
     14 HB1         14.2110    63.0180    44.5500 hc         1 GVA       0.020700
     15 HB2         14.0180    61.4060    45.2260 hc         1 GVA       0.020700
     16 HG1         15.7850    61.9060    46.9370 hc         1 GVA       0.052700
     17 HG2         16.0290    63.5040    46.2250 hc         1 GVA       0.052700
     18 HD1         13.6570    64.1090    46.7760 h1         1 GVA       0.029200
     19 HD2         13.4220    62.5040    47.5010 h1         1 GVA       0.029200
     20 HNE         15.4110    63.1740    48.9950 hn         1 GVA       0.489000
     21 HH21        14.7060    65.8500    50.2100 hn         1 GVA       0.457000
     22 HH22        14.9670    65.5410    48.5790 hn         1 GVA       0.457000
     23 HNH1        14.0690    62.7860    50.4440 hn         1 GVA       0.369400
@<TRIPOS>BOND
     1     1     2 1   
     2     2     3 1   
     3     2     4 1   
     4     4     5 1   
     5     4    12 1   
     6     4    13 1   
     7     5     6 1   
     8     5    14 1   
     9     5    15 1   
    10     6     7 1   
    11     6    16 1   
    12     6    17 1   
    13     7     8 1   
    14     7    18 1   
    15     7    19 1   
    16     8     9 1   
    17     8    20 1   
    18     9    10 1   
    19     9    11 2   
    20    10    21 1   
    21    10    22 1   
    22    11    23 1   
@<TRIPOS>SUBSTRUCTURE
     1 GVA         1 TEMP              0 ****  ****    0 ROOT
