@<TRIPOS>MOLECULE
GVC
   23    24     1     0     0
SMALL
No Charge or Current Charge


@<TRIPOS>ATOM
      1 O5          -1.8440     0.0610    -4.1250 o          1 GVC      -0.687000
      2 C1          -2.2320     0.7140    -3.1560 c          1 GVC       0.637500
      3 C35         -1.4760     0.6150    -1.8140 cc         1 GVC       0.488500
      4 N10         -0.3950    -0.1620    -1.6460 nd         1 GVC      -0.515800
      5 N9          -1.8670     1.3280    -0.6830 nc         1 GVC      -0.654000
      6 C34         -0.9920     0.9840     0.2370 cd         1 GVC       0.389800
      7 C36         -0.9900     1.4960     1.6540 c3         1 GVC      -0.116400
      8 N8          -0.1130     0.0930    -0.3410 na         1 GVC      -0.016500
      9 C30          0.9200    -0.4260     0.4350 ca         1 GVC       0.074800
     10 C31          2.1610     0.2350     0.4950 ca         1 GVC      -0.109000
     11 C32          3.1990    -0.2870     1.2830 ca         1 GVC       0.131000
     12 C33          3.0050    -1.4710     2.0130 ca         1 GVC      -0.125000
     13 Cl5          4.7460     0.5440     1.3570 cl         1 GVC      -0.207500
     14 C29          0.7280    -1.6150     1.1640 ca         1 GVC      -0.109000
     15 C28          1.7690    -2.1330     1.9500 ca         1 GVC       0.131000
     16 Cl1          1.5240    -3.6170     2.8620 cl         1 GVC      -0.207500
     17 OXT         -3.2180     1.4450    -3.2490 o          1 GVC      -0.687000
     18 H361        -0.0530     2.0190     1.8790 hc         1 GVC       0.046033
     19 H362        -1.8150     2.1980     1.8250 hc         1 GVC       0.046033
     20 H363        -1.0980     0.6720     2.3670 hc         1 GVC       0.046033
     21 H31          2.3190     1.1510    -0.0690 ha         1 GVC       0.155000
     22 H29         -0.2260    -2.1350     1.1200 ha         1 GVC       0.155000
     23 H33          3.8090    -1.8730     2.6220 ha         1 GVC       0.134000
@<TRIPOS>BOND
     1     1     2 1   
     2     2     3 1   
     3     2    17 1   
     4     3     4 2   
     5     3     5 1   
     6     4     8 1   
     7     5     6 2   
     8     6     7 1   
     9     6     8 1   
    10     7    18 1   
    11     7    19 1   
    12     7    20 1   
    13     8     9 1   
    14     9    10 ar  
    15     9    14 ar  
    16    10    11 ar  
    17    10    21 1   
    18    11    12 ar  
    19    11    13 1   
    20    12    15 ar  
    21    12    23 1   
    22    14    15 ar  
    23    14    22 1   
    24    15    16 1   
@<TRIPOS>SUBSTRUCTURE
     1 GVC         1 TEMP              0 ****  ****    0 ROOT
