@<TRIPOS>MOLECULE
GVC
   23    24     1     0     0
SMALL
abcg2


@<TRIPOS>ATOM
      1 O5          -2.1660    -0.8000    -3.5330 o          1 GVC      -0.687000
      2 C1          -2.4250     0.2290    -2.8880 c          1 GVC       0.637500
      3 C35         -1.5930     0.4530    -1.6410 cc         1 GVC       0.488500
      4 N10         -0.6350    -0.3650    -1.2800 nd         1 GVC      -0.515800
      5 N9          -1.7560     1.5020    -0.7950 nc         1 GVC      -0.654000
      6 C34         -0.8500     1.3190     0.1310 cd         1 GVC       0.389800
      7 C36         -0.6350     2.1760     1.3230 c3         1 GVC      -0.116400
      8 N8          -0.1550     0.1920    -0.1600 na         1 GVC      -0.016500
      9 C30          0.8810    -0.4380     0.5550 ca         1 GVC       0.074800
     10 C31          1.9170     0.3170     1.0850 ca         1 GVC      -0.109000
     11 C32          2.9140    -0.3360     1.7930 ca         1 GVC       0.131000
     12 C33          2.9150    -1.7100     1.9590 ca         1 GVC      -0.125000
     13 CL5          4.2060     0.5910     2.4660 cl         1 GVC      -0.207500
     14 C29          0.8490    -1.8190     0.6990 ca         1 GVC      -0.109000
     15 C28          1.8740    -2.4330     1.3960 ca         1 GVC       0.131000
     16 CL1          1.8490    -4.1490     1.5860 cl         1 GVC      -0.207500
     17 OXT         -3.2760     1.1000    -3.1290 o          1 GVC      -0.687000
     18 H361         0.2090     2.8540     1.1880 hc         1 GVC       0.046033
     19 H362        -1.5230     2.7820     1.4840 hc         1 GVC       0.046033
     20 H363        -0.4500     1.5870     2.2210 hc         1 GVC       0.046033
     21 H31          1.9670     1.3850     0.9350 ha         1 GVC       0.155000
     22 H29          0.0380    -2.3960     0.2790 ha         1 GVC       0.155000
     23 H33          3.7050    -2.2050     2.5060 ha         1 GVC       0.134000
@<TRIPOS>BOND
     1     1     2 1   
     2     2     3 1   
     3     2    17 1   
     4     3     4 2   
     5     3     5 1   
     6     4     8 1   
     7     5     6 2   
     8     6     7 1   
     9     6     8 1   
    10     7    18 1   
    11     7    19 1   
    12     7    20 1   
    13     8     9 1   
    14     9    10 ar  
    15     9    14 ar  
    16    10    11 ar  
    17    10    21 1   
    18    11    12 ar  
    19    11    13 1   
    20    12    15 ar  
    21    12    23 1   
    22    14    15 ar  
    23    14    22 1   
    24    15    16 1   
@<TRIPOS>SUBSTRUCTURE
     1 GVC         1 TEMP              0 ****  ****    0 ROOT
