@<TRIPOS>MOLECULE
GVD
   48    52     1     0     0
SMALL
No Charge or Current Charge


@<TRIPOS>ATOM
      1 CAL        -32.2070    44.4140    -6.0110 cx         1 GVD      -0.116400
      2 CAM        -32.5800    45.5170    -6.9740 cx         1 GVD      -0.116400
      3 CBB        -32.7180    45.7350    -5.4840 cx         1 GVD      -0.081400
      4 CAX        -31.7800    46.6270    -4.7830 cc         1 GVD      -0.087300
      5 CAK        -31.0470    47.6850    -5.2440 cd         1 GVD      -0.219000
      6 NAS        -31.4290    46.5810    -3.4290 na         1 GVD      -0.010200
      7 NAN        -30.5160    47.5580    -3.0410 nc         1 GVD      -0.576800
      8 CAV        -30.3110    48.1910    -4.1610 cd         1 GVD       0.505900
      9 NAR        -29.4450    49.2310    -4.1490 nu         1 GVD      -0.884800
     10 C6         -28.8540    50.0350    -5.1210 ca         1 GVD       0.423900
     11 N1         -29.1630    49.7670    -6.3960 nb         1 GVD      -0.298000
     12 C5         -27.9430    51.0640    -4.7870 ca         1 GVD      -0.181000
     13 CAJ        -27.5900    51.3810    -3.4530 ca         1 GVD      -0.070000
     14 CAD        -26.6780    52.4170    -3.1940 ca         1 GVD      -0.126000
     15 CAC        -26.1130    53.1400    -4.2550 ca         1 GVD      -0.079000
     16 CAI        -26.4610    52.8280    -5.5790 ca         1 GVD      -0.098000
     17 C4         -27.3740    51.7940    -5.8580 ca         1 GVD       0.062000
     18 N3         -27.6990    51.5010    -7.1340 nb         1 GVD      -0.191000
     19 C2         -28.5760    50.5030    -7.3550 ca         1 GVD       0.365000
     20 NAQ        -28.8980    50.2110    -8.6860 ne         1 GVD      -0.630700
     21 CAU        -28.8830    48.9880    -9.1190 cf         1 GVD       0.564900
     22 CAG        -27.6430    48.2500    -9.2780 cf         1 GVD      -0.279600
     23 CAE        -27.6080    46.9410    -9.6320 c2         1 GVD      -0.189200
     24 NAA        -30.8050    43.1720    -9.3320 n1         1 GVD      -0.455000
     25 CAF        -30.1440    46.9770    -9.7910 c2         1 GVD      -0.189200
     26 CAH        -30.1140    48.2840    -9.4280 cf         1 GVD      -0.279600
     27 CA0        -28.9360    44.9590    -8.8340 c3         1 GVD      -0.009300
     28 CAT        -28.8760    46.1200    -9.8730 c6         1 GVD      -0.007300
     29 HAL1       -32.8670    43.5530    -5.9470 hc         1 GVD       0.078950
     30 HAL2       -31.1510    44.1880    -5.8860 hc         1 GVD       0.078950
     31 HAM1       -31.7740    46.0250    -7.4960 hc         1 GVD       0.078950
     32 HAM2       -33.4910    45.3950    -7.5550 hc         1 GVD       0.078950
     33 HBB        -33.7270    45.7560    -5.0770 hc         1 GVD       0.083700
     34 HAK        -31.0470    48.0560    -6.2590 ha         1 GVD       0.168000
     35 HAS        -31.7900    45.9070    -2.7560 hn         1 GVD       0.373000
     36 HAR        -29.1140    49.4010    -3.2080 hn         1 GVD       0.515000
     37 HAJ        -28.0130    50.8410    -2.6100 ha         1 GVD       0.108000
     38 HAD        -26.4090    52.6590    -2.1680 ha         1 GVD       0.118000
     39 HAC        -25.4060    53.9420    -4.0520 ha         1 GVD       0.119000
     40 HAI        -26.0190    53.3940    -6.3960 ha         1 GVD       0.137000
     41 HAG        -26.7200    48.8020    -9.1030 ha         1 GVD       0.204500
     42 HAH        -31.0350    48.8640    -9.3670 ha         1 GVD       0.204500
     43 HAE        -26.6500    46.4280    -9.7500 ha         1 GVD       0.187000
     44 HAT        -28.8120    45.6680   -10.8740 hc         1 GVD       0.080700
     45 HA01       -29.0860    45.3620    -7.8260 hc         1 GVD       0.076700
     46 HA02       -27.9800    44.4240    -8.8140 hc         1 GVD       0.076700
     47 HAF        -31.0950    46.4960   -10.0350 ha         1 GVD       0.187000
     48 CAB        -29.9870    43.9680    -9.0990 c1         1 GVD       0.295900
@<TRIPOS>BOND
     1     1     2 1   
     2     1     3 1   
     3     1    29 1   
     4     1    30 1   
     5     2     3 1   
     6     2    31 1   
     7     2    32 1   
     8     3     4 1   
     9     3    33 1   
    10     4     5 2   
    11     4     6 1   
    12     5     8 1   
    13     5    34 1   
    14     6     7 1   
    15     6    35 1   
    16     7     8 2   
    17     8     9 1   
    18     9    10 1   
    19     9    36 1   
    20    10    11 ar  
    21    10    12 ar  
    22    11    19 ar  
    23    12    13 ar  
    24    12    17 ar  
    25    13    14 ar  
    26    13    37 1   
    27    14    15 ar  
    28    14    38 1   
    29    15    16 ar  
    30    15    39 1   
    31    16    17 ar  
    32    16    40 1   
    33    17    18 ar  
    34    18    19 ar  
    35    19    20 1   
    36    20    21 2   
    37    21    22 1   
    38    21    26 1   
    39    22    23 2   
    40    22    41 1   
    41    23    28 1   
    42    23    43 1   
    43    24    48 3   
    44    25    26 2   
    45    25    28 1   
    46    25    47 1   
    47    26    42 1   
    48    27    28 1   
    49    27    45 1   
    50    27    46 1   
    51    27    48 1   
    52    28    44 1   
@<TRIPOS>SUBSTRUCTURE
     1 GVD         1 TEMP              0 ****  ****    0 ROOT
