@<TRIPOS>MOLECULE
GVD
   48    52     1     0     0
SMALL
abcg2


@<TRIPOS>ATOM
      1 CAL        -31.2280    44.4800    -6.0840 cx         1 GVD      -0.116400
      2 CAM        -32.4370    45.2860    -6.4410 cx         1 GVD      -0.116400
      3 CBB        -31.9480    45.2680    -5.0100 cx         1 GVD      -0.081400
      4 CAX        -31.3160    46.4630    -4.4390 cc         1 GVD      -0.087300
      5 CAK        -30.5430    47.4580    -5.0200 cd         1 GVD      -0.219000
      6 NAS        -31.4060    46.7740    -3.1280 na         1 GVD      -0.010200
      7 NAN        -30.7420    47.9090    -2.7990 nc         1 GVD      -0.576800
      8 CAV        -30.2160    48.3220    -3.9540 cd         1 GVD       0.505900
      9 NAR        -29.4300    49.4710    -3.9180 nu         1 GVD      -0.884800
     10 C6         -28.8600    50.1260    -4.9580 ca         1 GVD       0.423900
     11 N1         -29.1310    49.7260    -6.1870 nb         1 GVD      -0.298000
     12 C5         -27.9690    51.2340    -4.7140 ca         1 GVD      -0.181000
     13 CAJ        -27.6130    51.7240    -3.4430 ca         1 GVD      -0.070000
     14 CAD        -26.7480    52.7880    -3.3210 ca         1 GVD      -0.126000
     15 CAC        -26.2110    53.3930    -4.4710 ca         1 GVD      -0.079000
     16 CAI        -26.5400    52.9300    -5.7230 ca         1 GVD      -0.098000
     17 C4         -27.4240    51.8400    -5.8760 ca         1 GVD       0.062000
     18 N3         -27.7290    51.4070    -7.1350 nb         1 GVD      -0.191000
     19 C2         -28.5460    50.3780    -7.2190 ca         1 GVD       0.365000
     20 NAQ        -28.9220    49.9810    -8.5000 ne         1 GVD      -0.630700
     21 CAU        -28.8950    48.7480    -8.8830 cf         1 GVD       0.564900
     22 CAG        -28.3050    47.6350    -8.1380 cf         1 GVD      -0.279600
     23 CAE        -28.3670    46.3820    -8.5950 c2         1 GVD      -0.189200
     24 NAA        -31.2080    44.0140   -11.7770 n1         1 GVD      -0.455000
     25 CAF        -29.5500    47.1760   -10.6410 c2         1 GVD      -0.189200
     26 CAH        -29.4740    48.4290   -10.1850 cf         1 GVD      -0.279600
     27 CA0        -30.1460    44.9560    -9.5920 c3         1 GVD      -0.009300
     28 CAT        -29.0290    46.0030    -9.8790 c6         1 GVD      -0.007300
     29 HAL1       -31.3180    43.4020    -6.0540 hc         1 GVD       0.078950
     30 HAL2       -30.2610    44.8520    -6.3940 hc         1 GVD       0.078950
     31 HAM1       -32.2900    46.2030    -6.9960 hc         1 GVD       0.078950
     32 HAM2       -33.3590    44.7640    -6.6570 hc         1 GVD       0.078950
     33 HBB        -32.5380    44.6960    -4.3040 hc         1 GVD       0.083700
     34 HAK        -30.2560    47.5480    -6.0480 ha         1 GVD       0.168000
     35 HAS        -31.8990    46.2630    -2.4130 hn         1 GVD       0.373000
     36 HAR        -29.2660    49.8250    -2.9890 hn         1 GVD       0.515000
     37 HAJ        -28.0080    51.2720    -2.5420 ha         1 GVD       0.108000
     38 HAD        -26.4800    53.1570    -2.3400 ha         1 GVD       0.118000
     39 HAC        -25.5300    54.2290    -4.3670 ha         1 GVD       0.119000
     40 HAI        -26.1320    53.3860    -6.6160 ha         1 GVD       0.137000
     41 HAG        -27.8090    47.8490    -7.2030 ha         1 GVD       0.204500
     42 HAH        -29.8640    49.2600   -10.7590 ha         1 GVD       0.204500
     43 HAE        -27.9210    45.5740    -8.0240 ha         1 GVD       0.187000
     44 HAT        -28.2840    45.4900   -10.5020 hc         1 GVD       0.080700
     45 HA01       -30.9350    45.4080    -8.9880 hc         1 GVD       0.076700
     46 HA02       -29.7290    44.1230    -9.0230 hc         1 GVD       0.076700
     47 HAF        -30.0090    46.9750   -11.6020 ha         1 GVD       0.187000
     48 CAB        -30.7420    44.4240   -10.8080 c1         1 GVD       0.295900
@<TRIPOS>BOND
     1     1     2 1   
     2     1     3 1   
     3     1    29 1   
     4     1    30 1   
     5     2     3 1   
     6     2    31 1   
     7     2    32 1   
     8     3     4 1   
     9     3    33 1   
    10     4     5 2   
    11     4     6 1   
    12     5     8 1   
    13     5    34 1   
    14     6     7 1   
    15     6    35 1   
    16     7     8 2   
    17     8     9 1   
    18     9    10 1   
    19     9    36 1   
    20    10    11 ar  
    21    10    12 ar  
    22    11    19 ar  
    23    12    13 ar  
    24    12    17 ar  
    25    13    14 ar  
    26    13    37 1   
    27    14    15 ar  
    28    14    38 1   
    29    15    16 ar  
    30    15    39 1   
    31    16    17 ar  
    32    16    40 1   
    33    17    18 ar  
    34    18    19 ar  
    35    19    20 1   
    36    20    21 2   
    37    21    22 1   
    38    21    26 1   
    39    22    23 2   
    40    22    41 1   
    41    23    28 1   
    42    23    43 1   
    43    24    48 3   
    44    25    26 2   
    45    25    28 1   
    46    25    47 1   
    47    26    42 1   
    48    27    28 1   
    49    27    45 1   
    50    27    46 1   
    51    27    48 1   
    52    28    44 1   
@<TRIPOS>SUBSTRUCTURE
     1 GVD         1 TEMP              0 ****  ****    0 ROOT
