@<TRIPOS>MOLECULE
GVE
   19    18     1     0     0
SMALL
abcg2


@<TRIPOS>ATOM
      1 N            3.8470     0.2940    -0.0150 n8         1 GVE      -0.992200
      2 CA           2.6740    -0.5660     0.0040 c3         1 GVE       0.148800
      3 CB           1.3990     0.2650    -0.0280 c3         1 GVE      -0.071400
      4 CG           0.1620    -0.6160     0.0080 c3         1 GVE      -0.139400
      5 CD          -1.1310     0.1530    -0.0380 c          1 GVE       0.590100
      6 OE1         -2.1800    -0.6570     0.0550 os         1 GVE      -0.449100
      7 OE2         -1.2280     1.3500    -0.1490 o          1 GVE      -0.484000
      8 CH3         -3.4780    -0.0650     0.0130 c3         1 GVE       0.152900
      9 HN1          3.8950     0.8070     0.8580 hn         1 GVE       0.393000
     10 HN2          4.6830    -0.2760    -0.0380 hn         1 GVE       0.393000
     11 HA1          2.7040    -1.2080    -0.8810 h1         1 GVE       0.025700
     12 HA2          2.6390    -1.2430     0.8710 h1         1 GVE       0.025700
     13 HB1          1.3930     0.9480     0.8260 hc         1 GVE       0.062700
     14 HB2          1.4000     0.8840    -0.9270 hc         1 GVE       0.062700
     15 HG1          0.1670    -1.3190    -0.8320 hc         1 GVE       0.069200
     16 HG2          0.1580    -1.2390     0.9080 hc         1 GVE       0.069200
     17 HH31        -3.6190     0.6510     0.8220 h1         1 GVE       0.048033
     18 HH32        -3.6600     0.4310    -0.9400 h1         1 GVE       0.048033
     19 HH33        -4.1830    -0.8830     0.1320 h1         1 GVE       0.048033
@<TRIPOS>BOND
     1     1     2 1   
     2     1     9 1   
     3     1    10 1   
     4     2     3 1   
     5     2    11 1   
     6     2    12 1   
     7     3     4 1   
     8     3    13 1   
     9     3    14 1   
    10     4     5 1   
    11     4    15 1   
    12     4    16 1   
    13     5     6 1   
    14     5     7 2   
    15     6     8 1   
    16     8    17 1   
    17     8    18 1   
    18     8    19 1   
@<TRIPOS>SUBSTRUCTURE
     1 GVE         1 TEMP              0 ****  ****    0 ROOT
