@<TRIPOS>MOLECULE
GVE
   19    18     1     0     0
SMALL
No Charge or Current Charge


@<TRIPOS>ATOM
      1 N            3.6650     0.3920     0.5960 n8         1 GVE      -0.992200
      2 CA           2.6630    -0.5050    -0.0070 c3         1 GVE       0.148800
      3 CB           1.2680     0.1490    -0.0440 c3         1 GVE      -0.071400
      4 CG           0.1910    -0.7630    -0.6790 c3         1 GVE      -0.139400
      5 CD          -1.1790    -0.0810    -0.6940 c          1 GVE       0.590100
      6 OE1         -1.9250    -0.4120     0.4080 os         1 GVE      -0.449100
      7 OE2         -1.5410     0.6950    -1.5680 o          1 GVE      -0.484000
      8 CH3         -3.2350     0.1720     0.5390 c3         1 GVE       0.152900
      9 HN1          3.4240     0.5480     1.5830 hn         1 GVE       0.393000
     10 HN2          4.5670    -0.1000     0.6460 hn         1 GVE       0.393000
     11 HA1          2.9840    -0.7510    -1.0290 h1         1 GVE       0.025700
     12 HA2          2.6230    -1.4340     0.5790 h1         1 GVE       0.025700
     13 HB1          0.9610     0.4100     0.9770 hc         1 GVE       0.062700
     14 HB2          1.3250     1.0870    -0.6110 hc         1 GVE       0.062700
     15 HG1          0.4850    -1.0010    -1.7080 hc         1 GVE       0.069200
     16 HG2          0.1310    -1.6750    -0.0740 hc         1 GVE       0.069200
     17 HH31        -3.1730     1.2670     0.5830 h1         1 GVE       0.048033
     18 HH32        -3.8740    -0.1070    -0.3090 h1         1 GVE       0.048033
     19 HH33        -3.7190    -0.1790     1.4590 h1         1 GVE       0.048033
@<TRIPOS>BOND
     1     1     2 1   
     2     1     9 1   
     3     1    10 1   
     4     2     3 1   
     5     2    11 1   
     6     2    12 1   
     7     3     4 1   
     8     3    13 1   
     9     3    14 1   
    10     4     5 1   
    11     4    15 1   
    12     4    16 1   
    13     5     6 1   
    14     5     7 2   
    15     6     8 1   
    16     8    17 1   
    17     8    18 1   
    18     8    19 1   
@<TRIPOS>SUBSTRUCTURE
     1 GVE         1 TEMP              0 ****  ****    0 ROOT
