@<TRIPOS>MOLECULE
GVF
   28    28     1     0     0
SMALL
No Charge or Current Charge


@<TRIPOS>ATOM
      1 OAE          0.1180    -3.1700     3.9250 o          1 GVF      -0.969167
      2 PAH          0.6870    -2.1690     4.8740 p5         1 GVF       1.340400
      3 OAG          1.5840    -2.8760     5.8320 o          1 GVF      -0.969167
      4 OAI         -0.4200    -1.5580     5.6660 o          1 GVF      -0.969167
      5 OAM          1.5110    -1.0130     4.0950 os         1 GVF      -0.468500
      6 CAL          1.6610    -0.9940     2.7190 ca         1 GVF       0.167100
      7 CAP          2.8290    -1.5480     2.1250 ca         1 GVF       0.167100
      8 OAQ          3.8460    -2.0380     2.9270 os         1 GVF      -0.468500
      9 PAT          5.1420    -1.1610     3.3390 p5         1 GVF       1.340400
     10 OAS          5.2150    -1.0250     4.8220 o          1 GVF      -0.969167
     11 OAY          6.3860    -1.8520     2.8920 o          1 GVF      -0.969167
     12 OAU          5.0940     0.2030     2.7370 o          1 GVF      -0.969167
     13 CAO          2.9470    -1.6090     0.7060 ca         1 GVF       0.155100
     14 OAR          4.0500    -2.2270     0.1390 os         1 GVF      -0.471000
     15 PAW          4.3940    -2.5500    -1.4130 p5         1 GVF       1.335900
     16 OAV          4.5500    -1.2940    -2.2020 o          1 GVF      -0.979000
     17 OAZ          5.6770    -3.3060    -1.4860 o          1 GVF      -0.979000
     18 OAX          3.3270    -3.3920    -2.0310 o          1 GVF      -0.979000
     19 CAN          1.9220    -1.0550    -0.0920 ca         1 GVF      -0.265000
     20 CAJ          0.8020    -0.4480     0.4950 ca         1 GVF      -0.265000
     21 CAK          0.6530    -0.4090     1.8990 ca         1 GVF       0.155100
     22 OAF         -0.4400     0.2030     2.4920 os         1 GVF      -0.471000
     23 PAC         -1.6610     1.0430     1.8350 p5         1 GVF       1.335900
     24 OAB         -2.4870     0.1800     0.9400 o          1 GVF      -0.979000
     25 OAA         -2.5430     1.5630     2.9200 o          1 GVF      -0.979000
     26 OAD         -1.1490     2.2100     1.0590 o          1 GVF      -0.979000
     27 HAN          1.9850    -1.0770    -1.1750 ha         1 GVF       0.049500
     28 HAJ          0.0490    -0.0200    -0.1580 ha         1 GVF       0.049500
@<TRIPOS>BOND
     1     1     2 1   
     2     2     3 1   
     3     2     4 1   
     4     2     5 1   
     5     5     6 1   
     6     6     7 ar  
     7     6    21 ar  
     8     7     8 1   
     9     7    13 ar  
    10     8     9 1   
    11     9    10 1   
    12     9    11 1   
    13     9    12 1   
    14    13    14 1   
    15    13    19 ar  
    16    14    15 1   
    17    15    16 1   
    18    15    17 1   
    19    15    18 1   
    20    19    20 ar  
    21    19    27 1   
    22    20    21 ar  
    23    20    28 1   
    24    21    22 1   
    25    22    23 1   
    26    23    24 1   
    27    23    25 1   
    28    23    26 1   
@<TRIPOS>SUBSTRUCTURE
     1 GVF         1 TEMP              0 ****  ****    0 ROOT
