@<TRIPOS>MOLECULE
GVF
   28    28     1     0     0
SMALL
bcc


@<TRIPOS>ATOM
      1 OAE          0.8200    -3.5440     3.6850 o          1 GVF      -0.969167
      2 PAH          0.7910    -2.4480     4.7410 p5         1 GVF       1.340400
      3 OAG          1.7520    -2.6360     5.9070 o          1 GVF      -0.969167
      4 OAI         -0.6090    -2.0290     5.1790 o          1 GVF      -0.969167
      5 OAM          1.4200    -1.0480     3.9530 os         1 GVF      -0.468500
      6 CAL          1.5730    -1.0120     2.6170 ca         1 GVF       0.167100
      7 CAP          2.7770    -1.4410     2.0430 ca         1 GVF       0.167100
      8 OAQ          3.7520    -1.9250     2.8310 os         1 GVF      -0.468500
      9 PAT          5.0870    -0.9520     3.3250 p5         1 GVF       1.340400
     10 OAS          4.8470    -0.6980     4.8080 o          1 GVF      -0.969167
     11 OAY          6.2720    -1.8750     3.0570 o          1 GVF      -0.969167
     12 OAU          5.0140     0.2980     2.4590 o          1 GVF      -0.969167
     13 CAO          2.9590    -1.3920     0.6480 ca         1 GVF       0.155100
     14 OAR          4.1420    -1.8090     0.1490 os         1 GVF      -0.471000
     15 PAW          4.2700    -2.7450    -1.2860 p5         1 GVF       1.335900
     16 OAV          3.9800    -1.7800    -2.4340 o          1 GVF      -0.979000
     17 OAZ          5.7260    -3.1790    -1.1960 o          1 GVF      -0.979000
     18 OAX          3.2490    -3.8610    -1.1250 o          1 GVF      -0.979000
     19 CAN          1.9190    -0.9180    -0.1430 ca         1 GVF      -0.283000
     20 CAJ          0.7240    -0.4870     0.4260 ca         1 GVF      -0.283000
     21 CAK          0.5290    -0.5340     1.8020 ca         1 GVF       0.155100
     22 OAF         -0.6240    -0.1640     2.4000 os         1 GVF      -0.471000
     23 PAC         -1.5050     1.2340     1.9270 p5         1 GVF       1.335900
     24 OAB         -2.1660     0.8750     0.5980 o          1 GVF      -0.979000
     25 OAA         -2.4780     1.3490     3.0920 o          1 GVF      -0.979000
     26 OAD         -0.4640     2.3400     1.8380 o          1 GVF      -0.979000
     27 HAN          2.0550    -0.8730    -1.2160 ha         1 GVF       0.067500
     28 HAJ         -0.0800    -0.1330    -0.2050 ha         1 GVF       0.067500
@<TRIPOS>BOND
     1     1     2 1   
     2     2     3 1   
     3     2     4 1   
     4     2     5 1   
     5     5     6 1   
     6     6     7 ar  
     7     6    21 ar  
     8     7     8 1   
     9     7    13 ar  
    10     8     9 1   
    11     9    10 1   
    12     9    11 1   
    13     9    12 1   
    14    13    14 1   
    15    13    19 ar  
    16    14    15 1   
    17    15    16 1   
    18    15    17 1   
    19    15    18 1   
    20    19    20 ar  
    21    19    27 1   
    22    20    21 ar  
    23    20    28 1   
    24    21    22 1   
    25    22    23 1   
    26    23    24 1   
    27    23    25 1   
    28    23    26 1   
@<TRIPOS>SUBSTRUCTURE
     1 GVF         1 TEMP              0 ****  ****    0 ROOT
