@<TRIPOS>MOLECULE
GVG
   22    23     1     0     0
SMALL
No Charge or Current Charge


@<TRIPOS>ATOM
      1 C1           1.7060     4.8460     3.1010 cc         1 GVG       0.273300
      2 C2           1.8850     5.8600     2.0040 c3         1 GVG      -0.121400
      3 C3           1.3100     3.4950     2.9200 cc         1 GVG      -0.157000
      4 C6           1.0990     2.6500     1.7230 ca         1 GVG       0.014000
      5 C7           1.5760     3.0270     0.4460 ca         1 GVG      -0.108000
      6 C8           0.4110     1.4170     1.8310 ca         1 GVG      -0.108000
      7 C9           1.3660     2.2090    -0.6790 ca         1 GVG      -0.109000
      8 C10          0.1990     0.6010     0.7070 ca         1 GVG      -0.109000
      9 C11          0.6750     0.9960    -0.5510 ca         1 GVG      -0.114000
     10 C12          1.2430     2.9520     4.1740 cd         1 GVG      -0.159000
     11 N13          1.5710     3.9980     5.0430 na         1 GVG      -0.000200
     12 N3           1.8590     5.1800     4.3680 nd         1 GVG      -0.527800
     13 H2C1         1.0930     5.7730     1.2520 hc         1 GVG       0.048367
     14 H2C2         1.8440     6.8810     2.4020 hc         1 GVG       0.048367
     15 H2C3         2.8580     5.7380     1.5140 hc         1 GVG       0.048367
     16 H12          1.0250     1.9500     4.5250 h4         1 GVG       0.155000
     17 H7           2.1430     3.9370     0.3050 ha         1 GVG       0.111000
     18 H8           0.0110     1.0860     2.7850 ha         1 GVG       0.111000
     19 H9           1.7470     2.5150    -1.6510 ha         1 GVG       0.110500
     20 H10         -0.3400    -0.3390     0.8120 ha         1 GVG       0.110500
     21 H11          0.5120     0.3640    -1.4210 ha         1 GVG       0.111000
     22 H13          1.6150     3.9420     6.0610 hn         1 GVG       0.373000
@<TRIPOS>BOND
     1     1     2 1   
     2     1     3 1   
     3     1    12 2   
     4     2    13 1   
     5     2    14 1   
     6     2    15 1   
     7     3     4 1   
     8     3    10 2   
     9     4     5 ar  
    10     4     6 ar  
    11     5     7 ar  
    12     5    17 1   
    13     6     8 ar  
    14     6    18 1   
    15     7     9 ar  
    16     7    19 1   
    17     8     9 ar  
    18     8    20 1   
    19     9    21 1   
    20    10    11 1   
    21    10    16 1   
    22    11    12 1   
    23    11    22 1   
@<TRIPOS>SUBSTRUCTURE
     1 GVG         1 TEMP              0 ****  ****    0 ROOT
