@<TRIPOS>MOLECULE
GVG
   22    23     1     0     0
SMALL
abcg2


@<TRIPOS>ATOM
      1 C1           1.6370     4.7980     3.0590 cc         1 GVG       0.273300
      2 C2           1.6870     5.8380     1.9920 c3         1 GVG      -0.121400
      3 C3           1.4050     3.4040     2.9290 cc         1 GVG      -0.157000
      4 C6           1.1530     2.6090     1.7260 ca         1 GVG       0.014000
      5 C7           1.7660     2.9100     0.5070 ca         1 GVG      -0.108000
      6 C8           0.2920     1.5090     1.7760 ca         1 GVG      -0.108000
      7 C9           1.5230     2.1410    -0.6230 ca         1 GVG      -0.109000
      8 C10          0.0570     0.7340     0.6500 ca         1 GVG      -0.109000
      9 C11          0.6690     1.0490    -0.5570 ca         1 GVG      -0.114000
     10 C12          1.4380     2.9370     4.2290 cd         1 GVG      -0.159000
     11 N13          1.6740     3.9960     5.0100 na         1 GVG      -0.000200
     12 N3           1.7910     5.1300     4.3290 nd         1 GVG      -0.527800
     13 H2C1         0.8950     5.6910     1.2580 hc         1 GVG       0.048367
     14 H2C2         1.5710     6.8320     2.4230 hc         1 GVG       0.048367
     15 H2C3         2.6360     5.8240     1.4520 hc         1 GVG       0.048367
     16 H12          1.3280     1.9430     4.6310 h4         1 GVG       0.155000
     17 H7           2.4570     3.7390     0.4400 ha         1 GVG       0.111000
     18 H8          -0.2110     1.2640     2.7040 ha         1 GVG       0.111000
     19 H9           2.0120     2.3930    -1.5550 ha         1 GVG       0.110500
     20 H10         -0.6140    -0.1130     0.7140 ha         1 GVG       0.110500
     21 H11          0.4810     0.4490    -1.4380 ha         1 GVG       0.111000
     22 H13          1.7600     4.0010     6.0140 hn         1 GVG       0.373000
@<TRIPOS>BOND
     1     1     2 1   
     2     1     3 1   
     3     1    12 2   
     4     2    13 1   
     5     2    14 1   
     6     2    15 1   
     7     3     4 1   
     8     3    10 2   
     9     4     5 ar  
    10     4     6 ar  
    11     5     7 ar  
    12     5    17 1   
    13     6     8 ar  
    14     6    18 1   
    15     7     9 ar  
    16     7    19 1   
    17     8     9 ar  
    18     8    20 1   
    19     9    21 1   
    20    10    11 1   
    21    10    16 1   
    22    11    12 1   
    23    11    22 1   
@<TRIPOS>SUBSTRUCTURE
     1 GVG         1 TEMP              0 ****  ****    0 ROOT
