@<TRIPOS>MOLECULE
GVH
   15    16     1     0     0
SMALL
No Charge or Current Charge


@<TRIPOS>ATOM
      1 N1           3.0070    -1.5850    -1.9330 nb         1 GVH      -0.684000
      2 C2           1.9760    -1.0380    -2.6050 ca         1 GVH       0.366500
      3 C3           0.8930    -0.4670    -1.9740 ca         1 GVH      -0.137800
      4 C4           0.7930    -0.4180    -0.5800 ca         1 GVH      -0.026000
      5 C20         -0.0130     0.0140    -2.9720 cc         1 GVH      -0.234200
      6 C5           1.8630    -0.9850     0.1350 ca         1 GVH      -0.198000
      7 C6           2.9420    -1.5540    -0.5760 ca         1 GVH       0.356900
      8 N7           1.7940    -0.9390    -3.9720 na         1 GVH      -0.328400
      9 C8           0.5550    -0.2840    -4.2000 cd         1 GVH      -0.154100
     10 H6           3.7820    -1.9990    -0.0420 h4         1 GVH       0.017100
     11 H7           2.4420    -1.2800    -4.6720 hn         1 GVH       0.360000
     12 H4          -0.0610     0.0330    -0.0790 ha         1 GVH       0.119000
     13 H20         -0.9660     0.5180    -2.8160 ha         1 GVH       0.207000
     14 H5           1.8650    -0.9880     1.2210 ha         1 GVH       0.121000
     15 H8           0.1790    -0.0830    -5.2020 h4         1 GVH       0.214000
@<TRIPOS>BOND
     1     1     2 ar  
     2     1     7 ar  
     3     2     3 ar  
     4     2     8 1   
     5     3     4 ar  
     6     3     5 1   
     7     4     6 ar  
     8     4    12 1   
     9     5     9 2   
    10     5    13 1   
    11     6     7 ar  
    12     6    14 1   
    13     7    10 1   
    14     8     9 1   
    15     8    11 1   
    16     9    15 1   
@<TRIPOS>SUBSTRUCTURE
     1 GVH         1 TEMP              0 ****  ****    0 ROOT
