@<TRIPOS>MOLECULE
GVH
   15    16     1     0     0
SMALL
bcc


@<TRIPOS>ATOM
      1 N1           2.9830    -1.5740    -1.9500 nb         1 GVH      -0.684000
      2 C2           1.9480    -1.0270    -2.5670 ca         1 GVH       0.431800
      3 C3           0.8200    -0.4310    -1.9510 ca         1 GVH      -0.203100
      4 C4           0.7980    -0.4210    -0.5580 ca         1 GVH      -0.044000
      5 C20         -0.0330     0.0240    -3.0020 cc         1 GVH      -0.184200
      6 C5           1.8720    -0.9900     0.1050 ca         1 GVH      -0.281300
      7 C6           2.9280    -1.5460    -0.6270 ca         1 GVH       0.422200
      8 N7           1.7760    -0.9340    -3.9130 na         1 GVH      -0.278100
      9 C8           0.5900    -0.3030    -4.1720 cd         1 GVH      -0.104100
     10 H6           3.7670    -1.9890    -0.1020 h4         1 GVH       0.017100
     11 H7           2.4250    -1.2660    -4.6090 hn         1 GVH       0.309700
     12 H4          -0.0280     0.0150    -0.0110 ha         1 GVH       0.137000
     13 H20         -0.9800     0.5290    -2.9060 ha         1 GVH       0.157000
     14 H5           1.9090    -1.0100     1.1850 ha         1 GVH       0.139000
     15 H8           0.2750    -0.1340    -5.1890 h4         1 GVH       0.164000
@<TRIPOS>BOND
     1     1     2 ar  
     2     1     7 ar  
     3     2     3 ar  
     4     2     8 1   
     5     3     4 ar  
     6     3     5 1   
     7     4     6 ar  
     8     4    12 1   
     9     5     9 2   
    10     5    13 1   
    11     6     7 ar  
    12     6    14 1   
    13     7    10 1   
    14     8     9 1   
    15     8    11 1   
    16     9    15 1   
@<TRIPOS>SUBSTRUCTURE
     1 GVH         1 TEMP              0 ****  ****    0 ROOT
