@<TRIPOS>MOLECULE
GVI
   31    33     1     0     0
SMALL
bcc


@<TRIPOS>ATOM
      1 N1          -2.2200     1.5440     1.2370 nb         1 GVI      -0.740000
      2 C2          -1.7910     0.3030     1.4290 ca         1 GVI       0.669900
      3 N3          -1.3820    -0.5590     0.5110 nb         1 GVI      -0.705000
      4 C4          -1.4350    -0.0540    -0.7080 ca         1 GVI       0.424800
      5 C5          -1.8650     1.2390    -1.0520 ca         1 GVI      -0.154200
      6 N7          -1.7710     1.4140    -2.4110 nc         1 GVI      -0.554100
      7 C8          -1.3130     0.2810    -2.8580 cd         1 GVI       0.421700
      8 N9          -1.0920    -0.6390    -1.8840 na         1 GVI      -0.366000
      9 C10         -3.7150     6.0770    -0.3420 ca         1 GVI      -0.064300
     10 C11         -3.6330     5.2580    -1.4620 ca         1 GVI      -0.133500
     11 C12         -3.1630     3.9560    -1.3660 ca         1 GVI      -0.083500
     12 C13         -2.7590     3.4380    -0.1350 cp         1 GVI      -0.166500
     13 C14         -2.8380     4.2630     0.9920 ca         1 GVI      -0.083500
     14 C15         -3.2990     5.5610     0.8860 ca         1 GVI      -0.133500
     15 N10         -3.1080     8.4310    -0.3710 n7         1 GVI      -0.793200
     16 C16         -2.2760     2.0550     0.0050 cp         1 GVI       0.586800
     17 C1          -3.5590     9.8070    -0.4560 c3         1 GVI       0.139100
     18 H2          -1.7690    -0.0410     2.4570 h5         1 GVI       0.052100
     19 H9          -0.7340    -1.5730    -2.0150 hn         1 GVI       0.322700
     20 H9C1        -4.8050     7.6010    -1.3700 h1         1 GVI       0.037200
     21 H9C2        -4.8930     7.6990     0.3810 h1         1 GVI       0.037200
     22 H10         -2.4780     8.2510    -1.1440 hn         1 GVI       0.352800
     23 H8          -1.1150     0.0570    -3.8960 h5         1 GVI       0.068800
     24 H11         -3.9470     5.6370    -2.4270 ha         1 GVI       0.134500
     25 H15         -3.3450     6.1840     1.7710 ha         1 GVI       0.134500
     26 H12         -3.1200     3.3440    -2.2560 ha         1 GVI       0.155000
     27 H14         -2.5290     3.8810     1.9550 ha         1 GVI       0.155000
     28 H1C1        -4.1790    10.0230    -1.3380 h1         1 GVI       0.029700
     29 H1C2        -2.6980    10.4750    -0.4800 h1         1 GVI       0.029700
     30 H1C3        -4.1490    10.0600     0.4270 h1         1 GVI       0.029700
     31 C9          -4.2120     7.4910    -0.4490 c3         1 GVI       0.196100
@<TRIPOS>BOND
     1     1     2 ar  
     2     1    16 ar  
     3     2     3 ar  
     4     2    18 1   
     5     3     4 ar  
     6     4     5 ar  
     7     4     8 1   
     8     5     6 1   
     9     5    16 ar  
    10     6     7 2   
    11     7     8 1   
    12     7    23 1   
    13     8    19 1   
    14     9    10 ar  
    15     9    14 ar  
    16     9    31 1   
    17    10    11 ar  
    18    10    24 1   
    19    11    12 ar  
    20    11    26 1   
    21    12    13 ar  
    22    12    16 1   
    23    13    14 ar  
    24    13    27 1   
    25    14    25 1   
    26    15    17 1   
    27    15    22 1   
    28    15    31 1   
    29    17    28 1   
    30    17    29 1   
    31    17    30 1   
    32    20    31 1   
    33    21    31 1   
@<TRIPOS>SUBSTRUCTURE
     1 GVI         1 TEMP              0 ****  ****    0 ROOT
