@<TRIPOS>MOLECULE
GVI
   31    33     1     0     0
SMALL
No Charge or Current Charge


@<TRIPOS>ATOM
      1 N1          -2.4600     1.3700     1.2700 nb         1 GVI      -0.214000
      2 C2          -2.0460     0.0910     1.3850 ca         1 GVI       0.143900
      3 N3          -1.5210    -0.6690     0.4030 nb         1 GVI      -0.179000
      4 C4          -1.4040    -0.0760    -0.7980 ca         1 GVI       0.096500
      5 C5          -1.7960     1.2300    -1.0380 ca         1 GVI      -0.023600
      6 N7          -1.5300     1.5710    -2.3650 nc         1 GVI      -0.554100
      7 C8          -0.9960     0.4540    -2.8840 cd         1 GVI       0.421700
      8 N9          -0.9010    -0.5850    -1.9600 na         1 GVI      -0.416300
      9 C10         -3.7370     6.0930    -0.1910 ca         1 GVI      -0.064300
     10 C11         -3.8180     5.2470    -1.3120 ca         1 GVI      -0.115500
     11 C12         -3.3710     3.9170    -1.2350 ca         1 GVI      -0.065500
     12 C13         -2.8270     3.3890    -0.0350 cp         1 GVI      -0.166500
     13 C14         -2.7610     4.2570     1.0890 ca         1 GVI      -0.065500
     14 C15         -3.2070     5.5880     1.0100 ca         1 GVI      -0.115500
     15 N10         -3.1100     8.4490    -0.5780 n7         1 GVI      -0.848400
     16 C16         -2.3540     1.9620     0.0580 cp         1 GVI       0.258500
     17 C1          -3.4830     9.8690    -0.7170 c3         1 GVI       0.139100
     18 H2          -2.1430    -0.3710     2.3660 h5         1 GVI       0.052100
     19 H9          -0.5300    -1.5110    -2.1280 hn         1 GVI       0.373000
     20 H9C1        -5.0020     7.6050    -1.0470 h1         1 GVI       0.037200
     21 H9C2        -4.6950     7.8080     0.6840 h1         1 GVI       0.037200
     22 H10         -2.6860     8.1380    -1.4610 hn         1 GVI       0.408000
     23 H8          -0.6590     0.3290    -3.9070 h5         1 GVI       0.068800
     24 H11         -4.2320     5.6200    -2.2460 ha         1 GVI       0.116500
     25 H15         -3.1380     6.2300     1.8850 ha         1 GVI       0.116500
     26 H12         -3.4680     3.2870    -2.1160 ha         1 GVI       0.137000
     27 H14         -2.3510     3.9020     2.0320 ha         1 GVI       0.137000
     28 H1C1        -4.2050    10.0060    -1.5340 h1         1 GVI       0.029700
     29 H1C2        -2.5980    10.4810    -0.9370 h1         1 GVI       0.029700
     30 H1C3        -3.9370    10.2470     0.2090 h1         1 GVI       0.029700
     31 C9          -4.2260     7.5340    -0.2720 c3         1 GVI       0.196100
@<TRIPOS>BOND
     1     1     2 ar  
     2     1    16 ar  
     3     2     3 ar  
     4     2    18 1   
     5     3     4 ar  
     6     4     5 ar  
     7     4     8 1   
     8     5     6 1   
     9     5    16 ar  
    10     6     7 2   
    11     7     8 1   
    12     7    23 1   
    13     8    19 1   
    14     9    10 ar  
    15     9    14 ar  
    16     9    31 1   
    17    10    11 ar  
    18    10    24 1   
    19    11    12 ar  
    20    11    26 1   
    21    12    13 ar  
    22    12    16 1   
    23    13    14 ar  
    24    13    27 1   
    25    14    25 1   
    26    15    17 1   
    27    15    22 1   
    28    15    31 1   
    29    17    28 1   
    30    17    29 1   
    31    17    30 1   
    32    20    31 1   
    33    21    31 1   
@<TRIPOS>SUBSTRUCTURE
     1 GVI         1 TEMP              0 ****  ****    0 ROOT
