@<TRIPOS>MOLECULE
GVJ
   38    41     1     0     0
SMALL
No Charge or Current Charge


@<TRIPOS>ATOM
      1 N1          -5.2580     7.4420     0.1890 n8         1 GVJ      -0.994200
      2 C2          -3.8460     7.0970    -0.0580 c3         1 GVJ       0.255100
      3 C3          -3.4090     7.3490    -1.5070 ca         1 GVJ      -0.074300
      4 C4          -2.4480     6.4960    -2.0900 ca         1 GVJ      -0.096000
      5 C5          -2.0140     6.7020    -3.4110 ca         1 GVJ      -0.111500
      6 C6          -2.5340     7.7670    -4.1640 ca         1 GVJ      -0.107000
      7 C7          -3.4880     8.6250    -3.5950 ca         1 GVJ      -0.111500
      8 C8          -3.9240     8.4200    -2.2740 ca         1 GVJ      -0.096000
      9 C9          -2.9410     7.8140     0.9450 ca         1 GVJ      -0.092300
     10 C10         -2.2490     7.0770     1.9240 ca         1 GVJ      -0.127500
     11 C11         -1.4110     7.7230     2.8490 ca         1 GVJ      -0.059000
     12 C12         -1.2320     9.1300     2.8260 cp         1 GVJ      -0.170500
     13 C13         -1.9450     9.8610     1.8370 ca         1 GVJ      -0.059000
     14 C14         -2.7820     9.2140     0.9120 ca         1 GVJ      -0.127500
     15 C15         -0.3410     9.8310     3.8180 cp         1 GVJ       0.258500
     16 N16         -0.6790    11.1010     4.1420 nb         1 GVJ      -0.219000
     17 C17          0.1000    11.7560     5.0300 ca         1 GVJ       0.144900
     18 N18          1.2050    11.2720     5.6330 nb         1 GVJ      -0.178000
     19 C19          1.5430    10.0150     5.2980 ca         1 GVJ       0.096500
     20 N20          2.5910     9.2520     5.7060 na         1 GVJ      -0.416300
     21 C21          2.5200     8.0290     5.0610 cc         1 GVJ       0.423700
     22 N22          1.4490     7.9920     4.2520 nd         1 GVJ      -0.557100
     23 C23          0.8240     9.2420     4.4030 ca         1 GVJ      -0.022600
     24 H1N1        -5.4600     7.2580     1.1780 hn         1 GVJ       0.401500
     25 H1N2        -5.3520     8.4580     0.1150 hn         1 GVJ       0.401500
     26 H2          -3.7540     6.0150     0.1200 h1         1 GVJ       0.071700
     27 H4          -2.0330     5.6710    -1.5150 ha         1 GVJ       0.112500
     28 H8          -4.6600     9.0990    -1.8520 ha         1 GVJ       0.112500
     29 H5          -1.2720     6.0380    -3.8490 ha         1 GVJ       0.112000
     30 H6          -2.1980     7.9270    -5.1870 ha         1 GVJ       0.111000
     31 H7          -3.8910     9.4520    -4.1770 ha         1 GVJ       0.112000
     32 H10         -2.3610     5.9960     1.9750 ha         1 GVJ       0.113500
     33 H14         -3.3040     9.8080     0.1660 ha         1 GVJ       0.113500
     34 H11         -0.9100     7.1200     3.6020 ha         1 GVJ       0.141000
     35 H13         -1.8420    10.9420     1.7760 ha         1 GVJ       0.141000
     36 H17         -0.1910    12.7740     5.2820 h5         1 GVJ       0.052100
     37 H20          3.3080     9.5230     6.3650 hn         1 GVJ       0.374000
     38 H21          3.2470     7.2400     5.2130 h5         1 GVJ       0.069800
@<TRIPOS>BOND
     1     1     2 1   
     2     1    24 1   
     3     1    25 1   
     4     2     3 1   
     5     2     9 1   
     6     2    26 1   
     7     3     4 ar  
     8     3     8 ar  
     9     4     5 ar  
    10     4    27 1   
    11     5     6 ar  
    12     5    29 1   
    13     6     7 ar  
    14     6    30 1   
    15     7     8 ar  
    16     7    31 1   
    17     8    28 1   
    18     9    10 ar  
    19     9    14 ar  
    20    10    11 ar  
    21    10    32 1   
    22    11    12 ar  
    23    11    34 1   
    24    12    13 ar  
    25    12    15 1   
    26    13    14 ar  
    27    13    35 1   
    28    14    33 1   
    29    15    16 ar  
    30    15    23 ar  
    31    16    17 ar  
    32    17    18 ar  
    33    17    36 1   
    34    18    19 ar  
    35    19    20 1   
    36    19    23 ar  
    37    20    21 1   
    38    20    37 1   
    39    21    22 2   
    40    21    38 1   
    41    22    23 1   
@<TRIPOS>SUBSTRUCTURE
     1 GVJ         1 TEMP              0 ****  ****    0 ROOT
