@<TRIPOS>MOLECULE
GVJ
   38    41     1     0     0
SMALL
abcg2


@<TRIPOS>ATOM
      1 N1          -5.3280     7.7720    -0.1460 n8         1 GVJ      -0.994200
      2 C2          -3.9770     7.2550    -0.0240 c3         1 GVJ       0.255100
      3 C3          -3.3190     7.2690    -1.3900 ca         1 GVJ      -0.074300
      4 C4          -3.2520     6.1100    -2.1550 ca         1 GVJ      -0.096000
      5 C5          -2.6850     6.1280    -3.4240 ca         1 GVJ      -0.111500
      6 C6          -2.1820     7.3120    -3.9450 ca         1 GVJ      -0.107000
      7 C7          -2.2470     8.4760    -3.1890 ca         1 GVJ      -0.111500
      8 C8          -2.8080     8.4520    -1.9190 ca         1 GVJ      -0.096000
      9 C9          -3.0810     7.9320     1.0010 ca         1 GVJ      -0.092300
     10 C10         -1.8530     7.3550     1.3220 ca         1 GVJ      -0.127500
     11 C11         -1.0010     7.9430     2.2390 ca         1 GVJ      -0.059000
     12 C12         -1.3550     9.1400     2.8720 cp         1 GVJ      -0.170500
     13 C13         -2.5870     9.7140     2.5550 ca         1 GVJ      -0.059000
     14 C14         -3.4350     9.1170     1.6350 ca         1 GVJ      -0.127500
     15 C15         -0.4770     9.7970     3.8540 cp         1 GVJ       0.258500
     16 N16         -0.9330    10.9080     4.4390 nb         1 GVJ      -0.219000
     17 C17         -0.1940    11.5520     5.3320 ca         1 GVJ       0.144900
     18 N18          1.0180    11.2300     5.7560 nb         1 GVJ      -0.178000
     19 C19          1.4730    10.1340     5.1780 ca         1 GVJ       0.096500
     20 N20          2.6680     9.5150     5.3610 na         1 GVJ      -0.416300
     21 C21          2.6780     8.4310     4.5440 cc         1 GVJ       0.423700
     22 N22          1.5870     8.2950     3.8470 nd         1 GVJ      -0.557100
     23 C23          0.7990     9.3560     4.2210 ca         1 GVJ      -0.022600
     24 H1N1        -5.7890     7.7620     0.7560 hn         1 GVJ       0.401500
     25 H1N2        -5.3180     8.7370    -0.4550 hn         1 GVJ       0.401500
     26 H2          -4.0690     6.2080     0.2820 h1         1 GVJ       0.071700
     27 H4          -3.6420     5.1810    -1.7560 ha         1 GVJ       0.112500
     28 H8          -2.8340     9.3640    -1.3330 ha         1 GVJ       0.112500
     29 H5          -2.6320     5.2140    -4.0030 ha         1 GVJ       0.112000
     30 H6          -1.7370     7.3270    -4.9310 ha         1 GVJ       0.111000
     31 H7          -1.8550     9.4030    -3.5860 ha         1 GVJ       0.112000
     32 H10         -1.5560     6.4280     0.8450 ha         1 GVJ       0.113500
     33 H14         -4.3840     9.5880     1.4160 ha         1 GVJ       0.113500
     34 H11         -0.0560     7.4700     2.4640 ha         1 GVJ       0.141000
     35 H13         -2.8810    10.6370     3.0330 ha         1 GVJ       0.141000
     36 H17         -0.6350    12.4440     5.7630 h5         1 GVJ       0.052100
     37 H20          3.4100     9.8030     5.9810 hn         1 GVJ       0.374000
     38 H21          3.5280     7.7670     4.5020 h5         1 GVJ       0.069800
@<TRIPOS>BOND
     1     1     2 1   
     2     1    24 1   
     3     1    25 1   
     4     2     3 1   
     5     2     9 1   
     6     2    26 1   
     7     3     4 ar  
     8     3     8 ar  
     9     4     5 ar  
    10     4    27 1   
    11     5     6 ar  
    12     5    29 1   
    13     6     7 ar  
    14     6    30 1   
    15     7     8 ar  
    16     7    31 1   
    17     8    28 1   
    18     9    10 ar  
    19     9    14 ar  
    20    10    11 ar  
    21    10    32 1   
    22    11    12 ar  
    23    11    34 1   
    24    12    13 ar  
    25    12    15 1   
    26    13    14 ar  
    27    13    35 1   
    28    14    33 1   
    29    15    16 ar  
    30    15    23 ar  
    31    16    17 ar  
    32    17    18 ar  
    33    17    36 1   
    34    18    19 ar  
    35    19    20 1   
    36    19    23 ar  
    37    20    21 1   
    38    20    37 1   
    39    21    22 2   
    40    21    38 1   
    41    22    23 1   
@<TRIPOS>SUBSTRUCTURE
     1 GVJ         1 TEMP              0 ****  ****    0 ROOT
