@<TRIPOS>MOLECULE
GVK
   48    52     1     0     0
SMALL
No Charge or Current Charge


@<TRIPOS>ATOM
      1 Cl1         -1.8680     0.3470    -6.5270 cl         1 GVK      -0.208000
      2 C2          -1.3730     0.7780    -4.8950 ca         1 GVK       0.119000
      3 C3          -0.4290    -0.0070    -4.2180 ca         1 GVK      -0.103000
      4 C4          -0.0280     0.3340    -2.9140 ca         1 GVK      -0.097500
      5 C5          -0.5750     1.4690    -2.2620 ca         1 GVK      -0.065300
      6 C6          -1.5190     2.2530    -2.9680 ca         1 GVK      -0.097500
      7 C7          -1.9160     1.9090    -4.2720 ca         1 GVK      -0.103000
      8 C8          -0.1650     1.9070    -0.8260 c6         1 GVK       0.049600
      9 C9          -1.4410     1.8530     0.0900 c6         1 GVK      -0.067900
     10 C10         -1.1400     2.1420     1.5880 c6         1 GVK       0.156800
     11 N11         -0.0940     1.2410     2.1190 n7         1 GVK      -0.859400
     12 C14          1.1490     1.2910     1.3180 c6         1 GVK       0.156800
     13 C15          0.8590     0.9210    -0.1560 c6         1 GVK      -0.067900
     14 C16          0.4680     3.3300    -0.9610 ca         1 GVK      -0.043300
     15 C17          1.7180     3.4720    -1.6020 ca         1 GVK      -0.128000
     16 C18          2.3170     4.7320    -1.7650 ca         1 GVK      -0.062500
     17 C19          1.6860     5.9140    -1.3070 cp         1 GVK      -0.171500
     18 C20          0.4120     5.7710    -0.7020 ca         1 GVK      -0.062500
     19 C21         -0.1870     4.5110    -0.5380 ca         1 GVK      -0.128000
     20 C22          2.3190     7.2700    -1.4850 cp         1 GVK       0.260500
     21 N23          1.4740     8.3200    -1.6130 nb         1 GVK      -0.218000
     22 C24          2.0110     9.5480    -1.7750 ca         1 GVK       0.144900
     23 N25          3.3250     9.8470    -1.8160 nb         1 GVK      -0.179000
     24 C26          4.1600     8.8030    -1.6770 ca         1 GVK       0.096500
     25 N27          5.5190     8.7640    -1.6580 na         1 GVK      -0.416300
     26 C29          5.9160     7.4520    -1.4680 cc         1 GVK       0.422700
     27 N30          4.8440     6.6500    -1.3690 nd         1 GVK      -0.557100
     28 C31          3.7310     7.4970    -1.5060 ca         1 GVK      -0.022600
     29 H3          -0.0040    -0.8810    -4.7050 ha         1 GVK       0.128500
     30 H7          -2.6430     2.5220    -4.7990 ha         1 GVK       0.128500
     31 H4           0.7110    -0.2980    -2.4320 ha         1 GVK       0.118000
     32 H6          -1.9450     3.1420    -2.5100 ha         1 GVK       0.118000
     33 H9C1        -1.8860     0.8510     0.0170 hc         1 GVK       0.051950
     34 H9C2        -2.2220     2.5350    -0.2660 hc         1 GVK       0.051950
     35 H151         1.8050     0.8770    -0.7070 hc         1 GVK       0.051950
     36 H152         0.4550    -0.1010    -0.1710 hc         1 GVK       0.051950
     37 H101        -0.8130     3.1840     1.7170 h1         1 GVK       0.033950
     38 H102        -2.0610     2.0160     2.1760 h1         1 GVK       0.033950
     39 H11          0.1210     1.5140     3.0870 hn         1 GVK       0.410000
     40 H141         1.8800     0.5830     1.7370 h1         1 GVK       0.033950
     41 H142         1.5900     2.2980     1.3730 h1         1 GVK       0.033950
     42 H17          2.2340     2.6040    -2.0000 ha         1 GVK       0.115000
     43 H21         -1.1710     4.4810    -0.0830 ha         1 GVK       0.115000
     44 H18          3.2750     4.7870    -2.2770 ha         1 GVK       0.140000
     45 H20         -0.1250     6.6490    -0.3470 ha         1 GVK       0.140000
     46 H24          1.3150    10.3780    -1.8810 h5         1 GVK       0.052100
     47 H27          6.1410     9.5540    -1.7600 hn         1 GVK       0.374000
     48 H29          6.9580     7.1540    -1.4110 h5         1 GVK       0.069800
@<TRIPOS>BOND
     1     1     2 1   
     2     2     3 ar  
     3     2     7 ar  
     4     3     4 ar  
     5     3    29 1   
     6     4     5 ar  
     7     4    31 1   
     8     5     6 ar  
     9     5     8 1   
    10     6     7 ar  
    11     6    32 1   
    12     7    30 1   
    13     8     9 1   
    14     8    13 1   
    15     8    14 1   
    16     9    10 1   
    17     9    33 1   
    18     9    34 1   
    19    10    11 1   
    20    10    37 1   
    21    10    38 1   
    22    11    12 1   
    23    11    39 1   
    24    12    13 1   
    25    12    40 1   
    26    12    41 1   
    27    13    35 1   
    28    13    36 1   
    29    14    15 ar  
    30    14    19 ar  
    31    15    16 ar  
    32    15    42 1   
    33    16    17 ar  
    34    16    44 1   
    35    17    18 ar  
    36    17    20 1   
    37    18    19 ar  
    38    18    45 1   
    39    19    43 1   
    40    20    21 ar  
    41    20    28 ar  
    42    21    22 ar  
    43    22    23 ar  
    44    22    46 1   
    45    23    24 ar  
    46    24    25 1   
    47    24    28 ar  
    48    25    26 1   
    49    25    47 1   
    50    26    27 2   
    51    26    48 1   
    52    27    28 1   
@<TRIPOS>SUBSTRUCTURE
     1 GVK         1 TEMP              0 ****  ****    0 ROOT
