@<TRIPOS>MOLECULE
GVK
   48    52     1     0     0
SMALL
abcg2


@<TRIPOS>ATOM
      1 CL1         -1.3630     0.3860    -6.5150 cl         1 GVK      -0.208000
      2 C2          -1.0100     0.8250    -4.8740 ca         1 GVK       0.119000
      3 C3          -0.0990     0.0830    -4.1460 ca         1 GVK      -0.103000
      4 C4           0.1730     0.4410    -2.8300 ca         1 GVK      -0.097500
      5 C5          -0.4500     1.5300    -2.2290 ca         1 GVK      -0.065300
      6 C6          -1.3560     2.2630    -2.9980 ca         1 GVK      -0.097500
      7 C7          -1.6450     1.9210    -4.3080 ca         1 GVK      -0.103000
      8 C8          -0.1760     1.9570    -0.7880 c6         1 GVK       0.049600
      9 C9          -1.5120     1.9370    -0.0130 c6         1 GVK      -0.067900
     10 C10         -1.3550     2.1620     1.4860 c6         1 GVK       0.156800
     11 N11         -0.4320     1.1910     2.0450 n7         1 GVK      -0.859400
     12 C14          0.8750     1.2990     1.4250 c6         1 GVK       0.156800
     13 C15          0.7620     0.9780    -0.0570 c6         1 GVK      -0.067900
     14 C16          0.4720     3.3400    -0.8710 ca         1 GVK      -0.043300
     15 C17          1.7630     3.4560    -1.3920 ca         1 GVK      -0.128000
     16 C18          2.3880     4.6810    -1.5240 ca         1 GVK      -0.062500
     17 C19          1.7380     5.8590    -1.1450 cp         1 GVK      -0.171500
     18 C20          0.4400     5.7530    -0.6450 ca         1 GVK      -0.062500
     19 C21         -0.1770     4.5190    -0.5130 ca         1 GVK      -0.128000
     20 C22          2.3740     7.1800    -1.2670 cp         1 GVK       0.260500
     21 N23          1.6560     8.2450    -0.9040 nb         1 GVK      -0.218000
     22 C24          2.1690     9.4650    -0.9910 ca         1 GVK       0.144900
     23 N25          3.3780     9.8010    -1.4160 nb         1 GVK      -0.179000
     24 C26          4.0910     8.7490    -1.7740 ca         1 GVK       0.096500
     25 N27          5.3610     8.7130    -2.2520 na         1 GVK      -0.416300
     26 C29          5.6580     7.4070    -2.4750 cc         1 GVK       0.422700
     27 N30          4.6850     6.5950    -2.1800 nd         1 GVK      -0.557100
     28 C31          3.6730     7.4080    -1.7330 ca         1 GVK      -0.022600
     29 H3           0.3990    -0.7690    -4.5900 ha         1 GVK       0.128500
     30 H7          -2.3530     2.5050    -4.8800 ha         1 GVK       0.128500
     31 H4           0.8920    -0.1570    -2.2870 ha         1 GVK       0.118000
     32 H6          -1.8520     3.1290    -2.5770 ha         1 GVK       0.118000
     33 H9C1        -1.9590     0.9510    -0.1680 hc         1 GVK       0.051950
     34 H9C2        -2.2230     2.6570    -0.4200 hc         1 GVK       0.051950
     35 H151         1.7580     0.9650    -0.5040 hc         1 GVK       0.051950
     36 H152         0.3610    -0.0350    -0.1520 hc         1 GVK       0.051950
     37 H101        -1.0380     3.1960     1.6810 h1         1 GVK       0.033950
     38 H102        -2.3310     2.0390     1.9610 h1         1 GVK       0.033950
     39 H11         -0.3470     1.3470     3.0410 hn         1 GVK       0.410000
     40 H141         1.5500     0.5810     1.8940 h1         1 GVK       0.033950
     41 H142         1.3290     2.2950     1.5560 h1         1 GVK       0.033950
     42 H17          2.2980     2.5730    -1.7170 ha         1 GVK       0.115000
     43 H21         -1.1860     4.4960    -0.1250 ha         1 GVK       0.115000
     44 H18          3.3890     4.7180    -1.9290 ha         1 GVK       0.140000
     45 H20         -0.0940     6.6470    -0.3540 ha         1 GVK       0.140000
     46 H24          1.5240    10.2790    -0.6790 h5         1 GVK       0.052100
     47 H27          5.9700     9.5010    -2.4150 hn         1 GVK       0.374000
     48 H29          6.6210     7.1070    -2.8610 h5         1 GVK       0.069800
@<TRIPOS>BOND
     1     1     2 1   
     2     2     3 ar  
     3     2     7 ar  
     4     3     4 ar  
     5     3    29 1   
     6     4     5 ar  
     7     4    31 1   
     8     5     6 ar  
     9     5     8 1   
    10     6     7 ar  
    11     6    32 1   
    12     7    30 1   
    13     8     9 1   
    14     8    13 1   
    15     8    14 1   
    16     9    10 1   
    17     9    33 1   
    18     9    34 1   
    19    10    11 1   
    20    10    37 1   
    21    10    38 1   
    22    11    12 1   
    23    11    39 1   
    24    12    13 1   
    25    12    40 1   
    26    12    41 1   
    27    13    35 1   
    28    13    36 1   
    29    14    15 ar  
    30    14    19 ar  
    31    15    16 ar  
    32    15    42 1   
    33    16    17 ar  
    34    16    44 1   
    35    17    18 ar  
    36    17    20 1   
    37    18    19 ar  
    38    18    45 1   
    39    19    43 1   
    40    20    21 ar  
    41    20    28 ar  
    42    21    22 ar  
    43    22    23 ar  
    44    22    46 1   
    45    23    24 ar  
    46    24    25 1   
    47    24    28 ar  
    48    25    26 1   
    49    25    47 1   
    50    26    27 2   
    51    26    48 1   
    52    27    28 1   
@<TRIPOS>SUBSTRUCTURE
     1 GVK         1 TEMP              0 ****  ****    0 ROOT
