@<TRIPOS>MOLECULE
GVL
   37    36     1     0     0
SMALL
No Charge or Current Charge


@<TRIPOS>ATOM
      1 O          -14.0600   -22.0410   -23.3940 o          1 GVL      -0.745500
      2 C          -14.2690   -22.9830   -22.6390 c          1 GVL       0.738000
      3 CA         -14.3950   -24.4260   -23.2820 c3         1 GVL       0.019500
      4 N          -13.8840   -25.6160   -22.4820 n8         1 GVL      -0.973200
      5 CB         -15.8430   -24.6150   -23.8270 c3         1 GVL       0.254600
      6 O25        -16.7660   -24.7130   -22.7360 os         1 GVL      -0.572400
      7 P24        -18.2820   -24.2300   -22.9600 p5         1 GVL       1.421800
      8 O23        -18.8260   -24.7050   -24.2660 o          1 GVL      -0.830000
      9 O26        -19.1610   -24.6220   -21.8180 o          1 GVL      -0.830000
     10 O27        -18.0370   -22.6380   -22.9600 os         1 GVL      -0.614400
     11 C28        -17.7630   -21.9560   -21.7240 c3         1 GVL       0.225600
     12 C29        -18.9350   -20.9840   -21.3550 c3         1 GVL      -0.088000
     13 C30        -18.5700   -20.3050   -20.0020 c3         1 GVL      -0.073100
     14 C31        -19.0160   -19.8730   -22.4420 c3         1 GVL      -0.073100
     15 C32        -20.3180   -21.7390   -21.2680 c3         1 GVL       0.128300
     16 O33        -20.2290   -22.8520   -20.3350 oh         1 GVL      -0.766000
     17 C34        -21.5480   -20.8060   -20.9560 c          1 GVL       0.600100
     18 O35        -22.3050   -20.3680   -21.8120 o          1 GVL      -0.665100
     19 N36        -21.7970   -20.5380   -19.6530 nt         1 GVL      -0.602000
     20 OXT        -14.2120   -22.8690   -21.4190 o          1 GVL      -0.745500
     21 HA         -13.7430   -24.4110   -24.1670 h1         1 GVL      -0.024300
     22 HN1        -13.8960   -26.4560   -23.0710 hn         1 GVL       0.364000
     23 HN2        -12.8920   -25.4730   -22.2610 hn         1 GVL       0.364000
     24 HBC1       -16.0890   -23.7670   -24.4810 h1         1 GVL       0.003200
     25 HBC2       -15.8840   -25.5270   -24.4370 h1         1 GVL       0.003200
     26 H281       -17.6020   -22.6660   -20.9010 h1         1 GVL       0.049700
     27 H282       -16.8350   -21.3770   -21.8210 h1         1 GVL       0.049700
     28 H301       -18.5390   -21.0350   -19.1840 hc         1 GVL       0.025867
     29 H302       -17.5820   -19.8310   -20.0600 hc         1 GVL       0.025867
     30 H303       -19.2890   -19.5220   -19.7350 hc         1 GVL       0.025867
     31 H311       -19.7400   -19.0960   -22.1690 hc         1 GVL       0.025867
     32 H312       -18.0430   -19.3840   -22.5750 hc         1 GVL       0.025867
     33 H313       -19.3190   -20.2880   -23.4110 hc         1 GVL       0.025867
     34 H32        -20.5320   -22.1390   -22.2690 h1         1 GVL       0.063700
     35 H33        -19.8180   -23.6150   -20.8660 ho         1 GVL       0.552000
     36 H361       -21.2060   -20.9550   -18.9480 hn         1 GVL       0.305500
     37 H362       -22.5910   -19.9710   -19.4000 hn         1 GVL       0.305500
@<TRIPOS>BOND
     1     1     2 1   
     2     2     3 1   
     3     2    20 1   
     4     3     4 1   
     5     3     5 1   
     6     3    21 1   
     7     4    22 1   
     8     4    23 1   
     9     5     6 1   
    10     5    24 1   
    11     5    25 1   
    12     6     7 1   
    13     7     8 1   
    14     7     9 1   
    15     7    10 1   
    16    10    11 1   
    17    11    12 1   
    18    11    26 1   
    19    11    27 1   
    20    12    13 1   
    21    12    14 1   
    22    12    15 1   
    23    13    28 1   
    24    13    29 1   
    25    13    30 1   
    26    14    31 1   
    27    14    32 1   
    28    14    33 1   
    29    15    16 1   
    30    15    17 1   
    31    15    34 1   
    32    16    35 1   
    33    17    18 2   
    34    17    19 1   
    35    19    36 1   
    36    19    37 1   
@<TRIPOS>SUBSTRUCTURE
     1 GVL         1 TEMP              0 ****  ****    0 ROOT
