@<TRIPOS>MOLECULE
GVL
   37    36     1     0     0
SMALL
abcg2


@<TRIPOS>ATOM
      1 O          -14.2160   -22.3610   -22.4260 o          1 GVL      -0.745500
      2 C          -13.9150   -23.5470   -22.1840 c          1 GVL       0.738000
      3 CA         -14.2870   -24.5750   -23.2870 c3         1 GVL       0.019500
      4 N          -14.0740   -25.9470   -22.8520 n8         1 GVL      -0.973200
      5 CB         -15.7170   -24.3830   -23.7570 c3         1 GVL       0.254600
      6 O25        -16.6010   -24.5360   -22.6560 os         1 GVL      -0.572400
      7 P24        -18.1790   -24.1800   -22.8450 p5         1 GVL       1.421800
      8 O23        -18.7050   -24.7000   -24.1400 o          1 GVL      -0.830000
      9 O26        -18.8140   -24.5610   -21.5260 o          1 GVL      -0.830000
     10 O27        -18.1700   -22.5480   -22.9840 os         1 GVL      -0.614400
     11 C28        -17.8900   -21.7170   -21.8690 c3         1 GVL       0.225600
     12 C29        -19.0730   -20.8020   -21.5270 c3         1 GVL      -0.088000
     13 C30        -18.6570   -19.9800   -20.3060 c3         1 GVL      -0.073100
     14 C31        -19.3270   -19.8680   -22.7130 c3         1 GVL      -0.073100
     15 C32        -20.3200   -21.6790   -21.2130 c3         1 GVL       0.128300
     16 O33        -20.0490   -22.6560   -20.2490 oh         1 GVL      -0.766000
     17 C34        -21.5040   -20.8380   -20.7370 c          1 GVL       0.600100
     18 O35        -22.1380   -20.1210   -21.5020 o          1 GVL      -0.665100
     19 N36        -21.7880   -20.9420   -19.4330 nt         1 GVL      -0.602000
     20 OXT        -13.3170   -23.9780   -21.1800 o          1 GVL      -0.745500
     21 HA         -13.6600   -24.3120   -24.1560 h1         1 GVL      -0.024300
     22 HN1        -13.8670   -26.5320   -23.6500 hn         1 GVL       0.364000
     23 HN2        -13.2640   -25.9710   -22.2490 hn         1 GVL       0.364000
     24 HBC1       -15.8140   -23.3910   -24.2070 h1         1 GVL       0.003200
     25 HBC2       -15.9520   -25.1190   -24.5340 h1         1 GVL       0.003200
     26 H281       -17.5930   -22.2970   -20.9900 h1         1 GVL       0.049700
     27 H282       -17.0320   -21.0870   -22.1250 h1         1 GVL       0.049700
     28 H301       -18.5330   -20.6040   -19.4210 hc         1 GVL       0.025867
     29 H302       -17.7080   -19.4740   -20.4910 hc         1 GVL       0.025867
     30 H303       -19.3920   -19.2070   -20.0750 hc         1 GVL       0.025867
     31 H311       -20.0630   -19.1020   -22.4770 hc         1 GVL       0.025867
     32 H312       -18.4020   -19.3590   -22.9890 hc         1 GVL       0.025867
     33 H313       -19.6820   -20.4100   -23.5900 hc         1 GVL       0.025867
     34 H32        -20.6490   -22.1360   -22.1580 h1         1 GVL       0.063700
     35 H33        -19.5830   -23.4140   -20.6910 ho         1 GVL       0.552000
     36 H361       -21.3040   -21.6070   -18.8540 hn         1 GVL       0.305500
     37 H362       -22.5780   -20.4530   -19.0450 hn         1 GVL       0.305500
@<TRIPOS>BOND
     1     1     2 1   
     2     2     3 1   
     3     2    20 1   
     4     3     4 1   
     5     3     5 1   
     6     3    21 1   
     7     4    22 1   
     8     4    23 1   
     9     5     6 1   
    10     5    24 1   
    11     5    25 1   
    12     6     7 1   
    13     7     8 1   
    14     7     9 1   
    15     7    10 1   
    16    10    11 1   
    17    11    12 1   
    18    11    26 1   
    19    11    27 1   
    20    12    13 1   
    21    12    14 1   
    22    12    15 1   
    23    13    28 1   
    24    13    29 1   
    25    13    30 1   
    26    14    31 1   
    27    14    32 1   
    28    14    33 1   
    29    15    16 1   
    30    15    17 1   
    31    15    34 1   
    32    16    35 1   
    33    17    18 2   
    34    17    19 1   
    35    19    36 1   
    36    19    37 1   
@<TRIPOS>SUBSTRUCTURE
     1 GVL         1 TEMP              0 ****  ****    0 ROOT
