@<TRIPOS>MOLECULE
GVM
   26    25     1     0     0
SMALL
bcc


@<TRIPOS>ATOM
      1 C1           5.1860     1.2170     0.8320 c          1 GVM       0.924600
      2 O1A          4.0770     1.7320     0.5160 o          1 GVM      -0.837800
      3 O1B          6.2380     1.8440     1.0230 o          1 GVM      -0.837800
      4 C2           5.2240    -0.3160     0.9360 c3         1 GVM      -0.246400
      5 C3           3.9070    -0.9540     1.3990 c3         1 GVM       0.181100
      6 O3           2.8560    -0.5740     0.5390 oh         1 GVM      -0.667800
      7 C4           3.6430    -0.6300     2.8720 c3         1 GVM      -0.094400
      8 C5A          1.1110    -0.8280     3.0910 c3         1 GVM      -0.078433
      9 C5B          2.5860    -1.0100     5.0760 c3         1 GVM      -0.078433
     10 C5C          2.5470    -2.8480     3.4020 c3         1 GVM      -0.078433
     11 C5           2.4700    -1.3310     3.5820 c3         1 GVM      -0.036000
     12 H2C1         6.0430    -0.6260     1.5870 hc         1 GVM       0.029700
     13 H2C2         5.4680    -0.7040    -0.0600 hc         1 GVM       0.029700
     14 H3           4.0190    -2.0400     1.3070 h1         1 GVM       0.011700
     15 HA           3.0240     0.3880     0.4090 ho         1 GVM       0.468000
     16 H4C1         3.5210     0.4540     2.9870 hc         1 GVM       0.044200
     17 H4C2         4.5570    -0.8890     3.4210 hc         1 GVM       0.044200
     18 H5A1         1.0250     0.2550     3.2150 hc         1 GVM       0.024589
     19 H5A2         0.3040    -1.2910     3.6640 hc         1 GVM       0.024589
     20 H5A3         0.9500    -1.0520     2.0390 hc         1 GVM       0.024589
     21 H5B1         2.5650     0.0690     5.2500 hc         1 GVM       0.024589
     22 H5B2         1.7590    -1.4500     5.6390 hc         1 GVM       0.024589
     23 H5B3         3.5190    -1.3940     5.4960 hc         1 GVM       0.024589
     24 H5C1         2.3900    -3.1470     2.3640 hc         1 GVM       0.024589
     25 H5C2         3.5180    -3.2400     3.7160 hc         1 GVM       0.024589
     26 H5C3         1.7810    -3.3450     4.0030 hc         1 GVM       0.024589
@<TRIPOS>BOND
     1     1     2 1   
     2     1     3 1   
     3     1     4 1   
     4     4     5 1   
     5     4    12 1   
     6     4    13 1   
     7     5     6 1   
     8     5     7 1   
     9     5    14 1   
    10     6    15 1   
    11     7    11 1   
    12     7    16 1   
    13     7    17 1   
    14     8    11 1   
    15     8    18 1   
    16     8    19 1   
    17     8    20 1   
    18     9    11 1   
    19     9    21 1   
    20     9    22 1   
    21     9    23 1   
    22    10    11 1   
    23    10    24 1   
    24    10    25 1   
    25    10    26 1   
@<TRIPOS>SUBSTRUCTURE
     1 GVM         1 TEMP              0 ****  ****    0 ROOT
