@<TRIPOS>MOLECULE
GVM
   26    25     1     0     0
SMALL
No Charge or Current Charge


@<TRIPOS>ATOM
      1 C1           5.3170     1.0990     0.8690 c          1 GVM       0.714000
      2 O1A          4.6850     1.8100     0.1030 o          1 GVM      -0.732500
      3 O1B          5.9880     1.5180     1.7980 o          1 GVM      -0.732500
      4 C2           5.1160    -0.4110     0.7270 c3         1 GVM      -0.246400
      5 C3           3.7530    -0.8380     1.3120 c3         1 GVM       0.204300
      6 O3           2.7550    -0.1110     0.5960 oh         1 GVM      -0.730000
      7 C4           3.6290    -0.5820     2.8460 c3         1 GVM      -0.094400
      8 C5A          1.0840    -0.9690     3.1110 c3         1 GVM      -0.078433
      9 C5B          2.5920    -0.9210     5.1250 c3         1 GVM      -0.078433
     10 C5C          2.6970    -2.8750     3.5390 c3         1 GVM      -0.078433
     11 C5           2.5000    -1.3370     3.6310 c3         1 GVM      -0.036000
     12 H2C1         5.9000    -0.9670     1.2540 hc         1 GVM       0.029700
     13 H2C2         5.0550    -0.6740    -0.3370 hc         1 GVM       0.029700
     14 H3           3.6410    -1.9120     1.1200 h1         1 GVM       0.011700
     15 HA           3.2280     0.7020     0.2760 ho         1 GVM       0.507000
     16 H4C1         3.5180     0.4960     3.0150 hc         1 GVM       0.044200
     17 H4C2         4.5870    -0.8540     3.3060 hc         1 GVM       0.044200
     18 H5A1         0.9400     0.1190     3.1020 hc         1 GVM       0.024589
     19 H5A2         0.3080    -1.4070     3.7490 hc         1 GVM       0.024589
     20 H5A3         0.9210    -1.3460     2.0950 hc         1 GVM       0.024589
     21 H5B1         2.4460     0.1600     5.2420 hc         1 GVM       0.024589
     22 H5B2         1.8270    -1.4300     5.7250 hc         1 GVM       0.024589
     23 H5B3         3.5720    -1.1770     5.5450 hc         1 GVM       0.024589
     24 H5C1         2.5510    -3.2390     2.5150 hc         1 GVM       0.024589
     25 H5C2         3.7040    -3.1620     3.8630 hc         1 GVM       0.024589
     26 H5C3         1.9750    -3.3990     4.1780 hc         1 GVM       0.024589
@<TRIPOS>BOND
     1     1     2 1   
     2     1     3 1   
     3     1     4 1   
     4     4     5 1   
     5     4    12 1   
     6     4    13 1   
     7     5     6 1   
     8     5     7 1   
     9     5    14 1   
    10     6    15 1   
    11     7    11 1   
    12     7    16 1   
    13     7    17 1   
    14     8    11 1   
    15     8    18 1   
    16     8    19 1   
    17     8    20 1   
    18     9    11 1   
    19     9    21 1   
    20     9    22 1   
    21     9    23 1   
    22    10    11 1   
    23    10    24 1   
    24    10    25 1   
    25    10    26 1   
@<TRIPOS>SUBSTRUCTURE
     1 GVM         1 TEMP              0 ****  ****    0 ROOT
