@<TRIPOS>MOLECULE
GVN
   37    39     1     0     0
SMALL
No Charge or Current Charge


@<TRIPOS>ATOM
      1 N1           3.1850     1.0610     4.5490 n8         1 GVN      -1.000200
      2 C2           1.9080     0.3840     4.8690 c3         1 GVN       0.159800
      3 C3           1.8170    -1.0440     4.2570 c3         1 GVN       0.026900
      4 C4           0.6140    -1.8530     4.7600 ca         1 GVN      -0.066300
      5 C5           0.7400    -3.2520     4.8990 ca         1 GVN      -0.099000
      6 C6          -0.3440    -4.0280     5.3460 ca         1 GVN      -0.102000
      7 C7          -1.5660    -3.4130     5.6550 ca         1 GVN       0.118000
      8 Cl8         -2.9230    -4.3830     6.2130 cl         1 GVN      -0.207000
      9 C9          -1.7080    -2.0240     5.5130 ca         1 GVN      -0.102000
     10 C10         -0.6260    -1.2460     5.0660 ca         1 GVN      -0.099000
     11 C11          1.8380    -1.0300     2.7240 ca         1 GVN      -0.087300
     12 C12          2.8340    -1.7350     2.0210 ca         1 GVN      -0.098000
     13 C13          2.8510    -1.7350     0.6160 ca         1 GVN      -0.111000
     14 C14          1.8730    -1.0360    -0.1210 ca         1 GVN       0.019000
     15 C15          0.8720    -0.3360     0.5880 ca         1 GVN      -0.111000
     16 C16          0.8550    -0.3350     1.9940 ca         1 GVN      -0.098000
     17 C17          1.9150    -1.0540    -1.5900 cc         1 GVN      -0.155000
     18 C18          1.0060    -0.4050    -2.3760 cd         1 GVN      -0.158000
     19 N19          1.4140    -0.6830    -3.6890 na         1 GVN      -0.001200
     20 N20          2.5530    -1.4890    -3.7380 nd         1 GVN      -0.520800
     21 C21          2.8180    -1.6870    -2.4610 cc         1 GVN       0.252900
     22 H1N1         3.1400     2.0330     4.8780 hn         1 GVN       0.397500
     23 H1N2         3.2560     1.1530     3.5290 hn         1 GVN       0.397500
     24 H2C1         1.0860     1.0080     4.4950 h1         1 GVN       0.031200
     25 H2C2         1.8180     0.3180     5.9620 h1         1 GVN       0.031200
     26 H3           2.7180    -1.5620     4.6100 hc         1 GVN       0.075700
     27 H5           1.6810    -3.7410     4.6570 ha         1 GVN       0.117000
     28 H10         -0.7650    -0.1740     4.9550 ha         1 GVN       0.117000
     29 H6          -0.2360    -5.1040     5.4520 ha         1 GVN       0.128500
     30 H9          -2.6590    -1.5510     5.7470 ha         1 GVN       0.128500
     31 H12          3.6000    -2.2850     2.5620 ha         1 GVN       0.114500
     32 H16          0.0670     0.2060     2.5130 ha         1 GVN       0.114500
     33 H13          3.6340    -2.2870     0.1030 ha         1 GVN       0.110000
     34 H15          0.0970     0.2120     0.0620 ha         1 GVN       0.110000
     35 H18          0.1410     0.2060    -2.1430 h4         1 GVN       0.155000
     36 H21          3.6740    -2.2940    -2.1990 h4         1 GVN       0.039100
     37 H19          0.9580    -0.3540    -4.5400 hn         1 GVN       0.372000
@<TRIPOS>BOND
     1     1     2 1   
     2     1    22 1   
     3     1    23 1   
     4     2     3 1   
     5     2    24 1   
     6     2    25 1   
     7     3     4 1   
     8     3    11 1   
     9     3    26 1   
    10     4     5 ar  
    11     4    10 ar  
    12     5     6 ar  
    13     5    27 1   
    14     6     7 ar  
    15     6    29 1   
    16     7     8 1   
    17     7     9 ar  
    18     9    10 ar  
    19     9    30 1   
    20    10    28 1   
    21    11    12 ar  
    22    11    16 ar  
    23    12    13 ar  
    24    12    31 1   
    25    13    14 ar  
    26    13    33 1   
    27    14    15 ar  
    28    14    17 1   
    29    15    16 ar  
    30    15    34 1   
    31    16    32 1   
    32    17    18 2   
    33    17    21 1   
    34    18    19 1   
    35    18    35 1   
    36    19    20 1   
    37    19    37 1   
    38    20    21 2   
    39    21    36 1   
@<TRIPOS>SUBSTRUCTURE
     1 GVN         1 TEMP              0 ****  ****    0 ROOT
