@<TRIPOS>MOLECULE
GVN
   37    39     1     0     0
SMALL
abcg2


@<TRIPOS>ATOM
      1 N1           3.2030     0.9200     4.4140 n8         1 GVN      -1.000200
      2 C2           1.9250     0.3480     4.8020 c3         1 GVN       0.159800
      3 C3           1.7960    -1.0750     4.2510 c3         1 GVN       0.026900
      4 C4           0.5900    -1.8260     4.7710 ca         1 GVN      -0.066300
      5 C5           0.6220    -3.2200     4.7840 ca         1 GVN      -0.099000
      6 C6          -0.4580    -3.9680     5.2210 ca         1 GVN      -0.102000
      7 C7          -1.6000    -3.3100     5.6550 ca         1 GVN       0.118000
      8 CL8         -2.9620    -4.2320     6.2070 cl         1 GVN      -0.207000
      9 C9          -1.6640    -1.9280     5.6570 ca         1 GVN      -0.102000
     10 C10         -0.5690    -1.1960     5.2150 ca         1 GVN      -0.099000
     11 C11          1.8160    -1.0780     2.7380 ca         1 GVN      -0.087300
     12 C12          2.9260    -1.5390     2.0400 ca         1 GVN      -0.098000
     13 C13          2.9620    -1.5230     0.6530 ca         1 GVN      -0.111000
     14 C14          1.8840    -1.0420    -0.0890 ca         1 GVN       0.019000
     15 C15          0.7690    -0.5780     0.6150 ca         1 GVN      -0.111000
     16 C16          0.7370    -0.5940     1.9980 ca         1 GVN      -0.098000
     17 C17          1.9160    -1.0320    -1.5500 cc         1 GVN      -0.155000
     18 C18          1.0170    -0.4410    -2.4190 cd         1 GVN      -0.158000
     19 N19          1.4560    -0.7000    -3.6580 na         1 GVN      -0.001200
     20 N20          2.5730    -1.4150    -3.6800 nd         1 GVN      -0.520800
     21 C21          2.8660    -1.6240    -2.4120 cc         1 GVN       0.252900
     22 H1N1         3.3080     1.8270     4.8490 hn         1 GVN       0.397500
     23 H1N2         3.2090     1.0940     3.4160 hn         1 GVN       0.397500
     24 H2C1         1.0650     0.9510     4.4800 h1         1 GVN       0.031200
     25 H2C2         1.8860     0.3040     5.8930 h1         1 GVN       0.031200
     26 H3           2.6850    -1.6160     4.5910 hc         1 GVN       0.075700
     27 H5           1.5120    -3.7370     4.4450 ha         1 GVN       0.117000
     28 H10         -0.6420    -0.1160     5.2270 ha         1 GVN       0.117000
     29 H6          -0.4090    -5.0480     5.2260 ha         1 GVN       0.128500
     30 H9          -2.5540    -1.4180     6.0000 ha         1 GVN       0.128500
     31 H12          3.7790    -1.9230     2.5860 ha         1 GVN       0.114500
     32 H16         -0.1510    -0.2330     2.5030 ha         1 GVN       0.114500
     33 H13          3.8490    -1.8890     0.1510 ha         1 GVN       0.110000
     34 H15         -0.0950    -0.2050     0.0790 ha         1 GVN       0.110000
     35 H18          0.1230     0.1340    -2.2470 h4         1 GVN       0.155000
     36 H21          3.7430    -2.1960    -2.1490 h4         1 GVN       0.039100
     37 H19          1.0240    -0.4150    -4.5220 hn         1 GVN       0.372000
@<TRIPOS>BOND
     1     1     2 1   
     2     1    22 1   
     3     1    23 1   
     4     2     3 1   
     5     2    24 1   
     6     2    25 1   
     7     3     4 1   
     8     3    11 1   
     9     3    26 1   
    10     4     5 ar  
    11     4    10 ar  
    12     5     6 ar  
    13     5    27 1   
    14     6     7 ar  
    15     6    29 1   
    16     7     8 1   
    17     7     9 ar  
    18     9    10 ar  
    19     9    30 1   
    20    10    28 1   
    21    11    12 ar  
    22    11    16 ar  
    23    12    13 ar  
    24    12    31 1   
    25    13    14 ar  
    26    13    33 1   
    27    14    15 ar  
    28    14    17 1   
    29    15    16 ar  
    30    15    34 1   
    31    16    32 1   
    32    17    18 2   
    33    17    21 1   
    34    18    19 1   
    35    18    35 1   
    36    19    20 1   
    37    19    37 1   
    38    20    21 2   
    39    21    36 1   
@<TRIPOS>SUBSTRUCTURE
     1 GVN         1 TEMP              0 ****  ****    0 ROOT
