@<TRIPOS>MOLECULE
GVO
   37    39     1     0     0
SMALL
bcc


@<TRIPOS>ATOM
      1 N1           0.7260    -3.3860     4.3500 n8         1 GVO      -0.879800
      2 C2           0.5990    -2.0060     4.7790 c3         1 GVO       0.157800
      3 C3           1.7610    -1.1760     4.2300 c3         1 GVO       0.031900
      4 C4           1.8100     0.2310     4.7880 ca         1 GVO      -0.069300
      5 C5           3.0430     0.8620     4.9340 ca         1 GVO      -0.116000
      6 C6           3.1440     2.1600     5.4080 ca         1 GVO      -0.119500
      7 C7           1.9860     2.8430     5.7460 ca         1 GVO       0.027400
      8 CL8          2.0950     4.4690     6.3430 cl         1 GVO      -0.115400
      9 C9           0.7450     2.2440     5.6170 ca         1 GVO      -0.119500
     10 C10          0.6660     0.9430     5.1390 ca         1 GVO      -0.116000
     11 C11          1.7760    -1.1400     2.7180 ca         1 GVO      -0.059300
     12 C12          2.8660    -1.6210     2.0030 ca         1 GVO      -0.112500
     13 C13          2.8960    -1.5740     0.6160 ca         1 GVO      -0.124500
     14 C14          1.8310    -1.0380    -0.1070 ca         1 GVO       0.015000
     15 C15          0.7360    -0.5530     0.6140 ca         1 GVO      -0.124500
     16 C16          0.7100    -0.6050     1.9970 ca         1 GVO      -0.112500
     17 C17          1.8640    -0.9810    -1.5670 cc         1 GVO      -0.217300
     18 C18          2.9780    -1.1210    -2.4230 cc         1 GVO       0.317200
     19 N19          2.6380    -1.0070    -3.6920 nd         1 GVO      -0.522800
     20 N20          1.3270    -0.8000    -3.6750 na         1 GVO      -0.003600
     21 C21          0.8120    -0.7720    -2.4380 cd         1 GVO      -0.126300
     22 H1N1        -0.0680    -3.9160     4.6850 hn         1 GVO       0.337800
     23 H1N2         1.5380    -3.8010     4.7910 hn         1 GVO       0.337800
     24 H2C1         0.5690    -1.8780     5.8700 h1         1 GVO       0.032200
     25 H2C2        -0.3500    -1.6200     4.3970 h1         1 GVO       0.032200
     26 H3           2.6840    -1.6700     4.5520 hc         1 GVO       0.055700
     27 H5           3.9510     0.3300     4.6750 ha         1 GVO       0.134000
     28 H10         -0.3150     0.4940     5.0480 ha         1 GVO       0.134000
     29 H6           4.1130     2.6280     5.5180 ha         1 GVO       0.147000
     30 H9          -0.1570     2.7790     5.8850 ha         1 GVO       0.147000
     31 H12          3.7080    -2.0460     2.5350 ha         1 GVO       0.124500
     32 H16         -0.1560    -0.2130     2.5170 ha         1 GVO       0.124500
     33 H13          3.7580    -1.9740     0.0970 ha         1 GVO       0.126000
     34 H15         -0.1060    -0.1160     0.0910 ha         1 GVO       0.126000
     35 H18          4.0110    -1.2860    -2.1520 h4         1 GVO       0.038100
     36 H21         -0.2420    -0.6240    -2.2690 h4         1 GVO       0.173000
     37 H20          0.8260    -0.6800    -4.5410 hn         1 GVO       0.320700
@<TRIPOS>BOND
     1     1     2 1   
     2     1    22 1   
     3     1    23 1   
     4     2     3 1   
     5     2    24 1   
     6     2    25 1   
     7     3     4 1   
     8     3    11 1   
     9     3    26 1   
    10     4     5 ar  
    11     4    10 ar  
    12     5     6 ar  
    13     5    27 1   
    14     6     7 ar  
    15     6    29 1   
    16     7     8 1   
    17     7     9 ar  
    18     9    10 ar  
    19     9    30 1   
    20    10    28 1   
    21    11    12 ar  
    22    11    16 ar  
    23    12    13 ar  
    24    12    31 1   
    25    13    14 ar  
    26    13    33 1   
    27    14    15 ar  
    28    14    17 1   
    29    15    16 ar  
    30    15    34 1   
    31    16    32 1   
    32    17    18 1   
    33    17    21 2   
    34    18    19 2   
    35    18    35 1   
    36    19    20 1   
    37    20    21 1   
    38    20    37 1   
    39    21    36 1   
@<TRIPOS>SUBSTRUCTURE
     1 GVO         1 TEMP              0 ****  ****    0 ROOT
