@<TRIPOS>MOLECULE
GVO
   37    39     1     0     0
SMALL
No Charge or Current Charge


@<TRIPOS>ATOM
      1 N1           0.7080    -3.4780     4.4760 n8         1 GVO      -0.990200
      2 C2           0.6000    -2.0360     4.8010 c3         1 GVO       0.157800
      3 C3           1.7680    -1.1860     4.2190 c3         1 GVO       0.031900
      4 C4           1.8160     0.2420     4.7780 ca         1 GVO      -0.069300
      5 C5           3.0680     0.8530     4.9970 ca         1 GVO      -0.098000
      6 C6           3.1470     2.1650     5.4980 ca         1 GVO      -0.101500
      7 C7           1.9730     2.8790     5.7800 ca         1 GVO       0.119000
      8 Cl8          2.0710     4.5210     6.4050 cl         1 GVO      -0.207000
      9 C9           0.7210     2.2860     5.5590 ca         1 GVO      -0.101500
     10 C10          0.6400     0.9750     5.0580 ca         1 GVO      -0.098000
     11 C11          1.7790    -1.1470     2.6860 ca         1 GVO      -0.059300
     12 C12          2.9310    -1.5330     1.9750 ca         1 GVO      -0.094500
     13 C13          2.9570    -1.4820     0.5710 ca         1 GVO      -0.106500
     14 C14          1.8340    -1.0370    -0.1580 ca         1 GVO       0.015000
     15 C15          0.6830    -0.6430     0.5590 ca         1 GVO      -0.106500
     16 C16          0.6570    -0.6950     1.9630 ca         1 GVO      -0.094500
     17 C17          1.8880    -0.9930    -1.6260 cc         1 GVO      -0.152000
     18 C18          2.9300    -1.3380    -2.5040 cc         1 GVO       0.251900
     19 N19          2.6300    -1.1710    -3.7770 nd         1 GVO      -0.522800
     20 N20          1.3200    -0.6920    -3.7190 na         1 GVO      -0.003200
     21 C21          0.8460    -0.5750    -2.4040 cd         1 GVO      -0.159000
     22 H1N1        -0.0450    -3.9870     4.9550 hn         1 GVO       0.393000
     23 H1N2         1.5630    -3.8560     4.9020 hn         1 GVO       0.393000
     24 H2C1         0.5980    -1.9350     5.8960 h1         1 GVO       0.032200
     25 H2C2        -0.3640    -1.6690     4.4250 h1         1 GVO       0.032200
     26 H3           2.6840    -1.6890     4.5540 hc         1 GVO       0.055700
     27 H5           3.9860     0.3120     4.7760 ha         1 GVO       0.116000
     28 H10         -0.3420     0.5410     4.8860 ha         1 GVO       0.116000
     29 H6           4.1170     2.6270     5.6650 ha         1 GVO       0.129000
     30 H9          -0.1880     2.8440     5.7730 ha         1 GVO       0.129000
     31 H12          3.8140    -1.8760     2.5100 ha         1 GVO       0.106500
     32 H16         -0.2400    -0.3770     2.4880 ha         1 GVO       0.106500
     33 H13          3.8610    -1.7890     0.0530 ha         1 GVO       0.108000
     34 H15         -0.2020    -0.2900     0.0390 ha         1 GVO       0.108000
     35 H18          3.9130    -1.7110    -2.2480 h4         1 GVO       0.038100
     36 H21         -0.1500    -0.2190    -2.1650 h4         1 GVO       0.155000
     37 H20          0.8000    -0.4630    -4.5660 hn         1 GVO       0.371000
@<TRIPOS>BOND
     1     1     2 1   
     2     1    22 1   
     3     1    23 1   
     4     2     3 1   
     5     2    24 1   
     6     2    25 1   
     7     3     4 1   
     8     3    11 1   
     9     3    26 1   
    10     4     5 ar  
    11     4    10 ar  
    12     5     6 ar  
    13     5    27 1   
    14     6     7 ar  
    15     6    29 1   
    16     7     8 1   
    17     7     9 ar  
    18     9    10 ar  
    19     9    30 1   
    20    10    28 1   
    21    11    12 ar  
    22    11    16 ar  
    23    12    13 ar  
    24    12    31 1   
    25    13    14 ar  
    26    13    33 1   
    27    14    15 ar  
    28    14    17 1   
    29    15    16 ar  
    30    15    34 1   
    31    16    32 1   
    32    17    18 1   
    33    17    21 2   
    34    18    19 2   
    35    18    35 1   
    36    19    20 1   
    37    20    21 1   
    38    20    37 1   
    39    21    36 1   
@<TRIPOS>SUBSTRUCTURE
     1 GVO         1 TEMP              0 ****  ****    0 ROOT
