@<TRIPOS>MOLECULE
GVP
   44    47     1     0     0
SMALL
No Charge or Current Charge


@<TRIPOS>ATOM
      1 Cl1         -0.1850     0.0300    -6.5960 cl         1 GVP      -0.207000
      2 C2          -0.1850     0.5680    -4.9220 ca         1 GVP       0.119000
      3 C3           0.4360    -0.2100    -3.9340 ca         1 GVP      -0.103000
      4 C4           0.4400     0.2180    -2.5940 ca         1 GVP      -0.098000
      5 C5          -0.1870     1.4330    -2.2210 ca         1 GVP      -0.063300
      6 C6          -0.7990     2.2070    -3.2350 ca         1 GVP      -0.098000
      7 C7          -0.8000     1.7770    -4.5730 ca         1 GVP      -0.103000
      8 C8          -0.2060     1.9670    -0.7580 c6         1 GVP       0.054600
      9 C9          -1.7030     2.0660    -0.2890 c6         1 GVP      -0.067900
     10 C10         -1.8580     2.4620     1.2070 c6         1 GVP       0.157300
     11 N11         -1.1060     1.5490     2.0950 n7         1 GVP      -0.859400
     12 C12          0.3230     1.4590     1.7240 c6         1 GVP       0.157300
     13 C13          0.4750     0.9830     0.2600 c6         1 GVP      -0.067900
     14 C14          0.5520     3.3330    -0.7770 ca         1 GVP      -0.072300
     15 C15          1.9470     3.3470    -1.0010 ca         1 GVP      -0.103500
     16 C16          2.6670     4.5520    -1.0480 ca         1 GVP      -0.109000
     17 C17          2.0170     5.7900    -0.8900 ca         1 GVP       0.018000
     18 C18          0.6200     5.7880    -0.6980 ca         1 GVP      -0.109000
     19 C19         -0.1020     4.5830    -0.6520 ca         1 GVP      -0.103500
     20 C20          2.7940     7.0360    -0.9410 cc         1 GVP      -0.155000
     21 C21          2.2370     8.2750    -0.7980 cd         1 GVP      -0.159000
     22 N22          3.3180     9.1620    -0.9110 na         1 GVP      -0.001200
     23 N23          4.5330     8.5040    -1.1180 nd         1 GVP      -0.521800
     24 C24          4.1720     7.2360    -1.1300 cc         1 GVP       0.252900
     25 H3           0.9180    -1.1450    -4.2080 ha         1 GVP       0.128000
     26 H7          -1.2760     2.3840    -5.3390 ha         1 GVP       0.128000
     27 H4           0.9400    -0.4140    -1.8660 ha         1 GVP       0.117500
     28 H6          -1.2720     3.1550    -2.9900 ha         1 GVP       0.117500
     29 H9C1        -2.1850     1.0900    -0.4370 hc         1 GVP       0.051200
     30 H9C2        -2.2770     2.7610    -0.9140 hc         1 GVP       0.051200
     31 H131         1.5390     0.8380     0.0390 hc         1 GVP       0.051200
     32 H132         0.0140    -0.0110     0.1820 hc         1 GVP       0.051200
     33 H101        -1.5030     3.4890     1.3680 h1         1 GVP       0.032950
     34 H102        -2.9230     2.4390     1.4820 h1         1 GVP       0.032950
     35 H11         -1.1800     1.8890     3.0630 hn         1 GVP       0.410000
     36 H121         0.8280     0.7480     2.3950 h1         1 GVP       0.032950
     37 H122         0.8060     2.4390     1.8530 h1         1 GVP       0.032950
     38 H15          2.4880     2.4180    -1.1580 ha         1 GVP       0.110500
     39 H19         -1.1770     4.6490    -0.5250 ha         1 GVP       0.110500
     40 H16          3.7390     4.5130    -1.2160 ha         1 GVP       0.109500
     41 H18          0.0740     6.7200    -0.5890 ha         1 GVP       0.109500
     42 H21          1.2180     8.6060    -0.6340 h4         1 GVP       0.154000
     43 H24          4.9350     6.4820    -1.2770 h4         1 GVP       0.039100
     44 H22          3.2680    10.1790    -0.8530 hn         1 GVP       0.372000
@<TRIPOS>BOND
     1     1     2 1   
     2     2     3 ar  
     3     2     7 ar  
     4     3     4 ar  
     5     3    25 1   
     6     4     5 ar  
     7     4    27 1   
     8     5     6 ar  
     9     5     8 1   
    10     6     7 ar  
    11     6    28 1   
    12     7    26 1   
    13     8     9 1   
    14     8    13 1   
    15     8    14 1   
    16     9    10 1   
    17     9    29 1   
    18     9    30 1   
    19    10    11 1   
    20    10    33 1   
    21    10    34 1   
    22    11    12 1   
    23    11    35 1   
    24    12    13 1   
    25    12    36 1   
    26    12    37 1   
    27    13    31 1   
    28    13    32 1   
    29    14    15 ar  
    30    14    19 ar  
    31    15    16 ar  
    32    15    38 1   
    33    16    17 ar  
    34    16    40 1   
    35    17    18 ar  
    36    17    20 1   
    37    18    19 ar  
    38    18    41 1   
    39    19    39 1   
    40    20    21 2   
    41    20    24 1   
    42    21    22 1   
    43    21    42 1   
    44    22    23 1   
    45    22    44 1   
    46    23    24 2   
    47    24    43 1   
@<TRIPOS>SUBSTRUCTURE
     1 GVP         1 TEMP              0 ****  ****    0 ROOT
