@<TRIPOS>MOLECULE
GVP
   44    47     1     0     0
SMALL
bcc


@<TRIPOS>ATOM
      1 CL1         -0.1580     0.0520    -6.4840 cl         1 GVP      -0.115400
      2 C2          -0.1590     0.5970    -4.8370 ca         1 GVP       0.027400
      3 C3           0.5070    -0.1340    -3.8720 ca         1 GVP      -0.121000
      4 C4           0.4980     0.3090    -2.5540 ca         1 GVP      -0.116000
      5 C5          -0.1660     1.4740    -2.1820 ca         1 GVP      -0.063300
      6 C6          -0.8190     2.1930    -3.1860 ca         1 GVP      -0.116000
      7 C7          -0.8260     1.7670    -4.5030 ca         1 GVP      -0.121000
      8 C8          -0.1980     1.9930    -0.7440 c6         1 GVP       0.054600
      9 C9          -1.6710     2.1200    -0.3000 c6         1 GVP      -0.067900
     10 C10         -1.8330     2.4520     1.1780 c6         1 GVP       0.157300
     11 N11         -1.1580     1.4560     1.9890 n7         1 GVP      -0.804200
     12 C12          0.2600     1.4170     1.6870 c6         1 GVP       0.157300
     13 C13          0.4620     1.0080     0.2370 c6         1 GVP      -0.067900
     14 C14          0.5480     3.3300    -0.7500 ca         1 GVP      -0.072300
     15 C15          1.9360     3.3500    -0.8940 ca         1 GVP      -0.121500
     16 C16          2.6460     4.5360    -0.9620 ca         1 GVP      -0.127000
     17 C17          1.9980     5.7710    -0.9020 ca         1 GVP       0.018000
     18 C18          0.6100     5.7570    -0.7760 ca         1 GVP      -0.127000
     19 C19         -0.0950     4.5640    -0.7010 ca         1 GVP      -0.121500
     20 C20          2.7490     7.0210    -0.9770 cc         1 GVP      -0.220300
     21 C21          2.3140     8.3000    -0.6810 cd         1 GVP      -0.126300
     22 N22          3.3520     9.1180    -0.9010 na         1 GVP      -0.001600
     23 N23          4.4400     8.4840    -1.3200 nd         1 GVP      -0.521800
     24 C24          4.0920     7.2130    -1.3700 cc         1 GVP       0.318200
     25 H3           1.0300    -1.0440    -4.1320 ha         1 GVP       0.146000
     26 H7          -1.3440     2.3410    -5.2580 ha         1 GVP       0.146000
     27 H4           1.0300    -0.2830    -1.8230 ha         1 GVP       0.135500
     28 H6          -1.3330     3.1160    -2.9480 ha         1 GVP       0.135500
     29 H9C1        -2.1570     1.1600    -0.4960 hc         1 GVP       0.051200
     30 H9C2        -2.2090     2.8560    -0.9000 hc         1 GVP       0.051200
     31 H131         1.5270     0.8880     0.0370 hc         1 GVP       0.051200
     32 H132         0.0080     0.0210     0.1020 hc         1 GVP       0.051200
     33 H101        -1.4640     3.4690     1.3760 h1         1 GVP       0.032950
     34 H102        -2.8970     2.4510     1.4240 h1         1 GVP       0.032950
     35 H11         -1.2900     1.6750     2.9680 hn         1 GVP       0.354800
     36 H121         0.7400     0.6810     2.3340 h1         1 GVP       0.032950
     37 H122         0.7620     2.3800     1.8750 h1         1 GVP       0.032950
     38 H15          2.4920     2.4230    -0.9630 ha         1 GVP       0.128500
     39 H19         -1.1710     4.6240    -0.6130 ha         1 GVP       0.128500
     40 H16          3.7240     4.4900    -1.0570 ha         1 GVP       0.127500
     41 H18          0.0560     6.6870    -0.7440 ha         1 GVP       0.127500
     42 H21          1.3660     8.6730    -0.3300 h4         1 GVP       0.172000
     43 H24          4.8070     6.4710    -1.6930 h4         1 GVP       0.039100
     44 H22          3.3690    10.1180    -0.7780 hn         1 GVP       0.321700
@<TRIPOS>BOND
     1     1     2 1   
     2     2     3 ar  
     3     2     7 ar  
     4     3     4 ar  
     5     3    25 1   
     6     4     5 ar  
     7     4    27 1   
     8     5     6 ar  
     9     5     8 1   
    10     6     7 ar  
    11     6    28 1   
    12     7    26 1   
    13     8     9 1   
    14     8    13 1   
    15     8    14 1   
    16     9    10 1   
    17     9    29 1   
    18     9    30 1   
    19    10    11 1   
    20    10    33 1   
    21    10    34 1   
    22    11    12 1   
    23    11    35 1   
    24    12    13 1   
    25    12    36 1   
    26    12    37 1   
    27    13    31 1   
    28    13    32 1   
    29    14    15 ar  
    30    14    19 ar  
    31    15    16 ar  
    32    15    38 1   
    33    16    17 ar  
    34    16    40 1   
    35    17    18 ar  
    36    17    20 1   
    37    18    19 ar  
    38    18    41 1   
    39    19    39 1   
    40    20    21 2   
    41    20    24 1   
    42    21    22 1   
    43    21    42 1   
    44    22    23 1   
    45    22    44 1   
    46    23    24 2   
    47    24    43 1   
@<TRIPOS>SUBSTRUCTURE
     1 GVP         1 TEMP              0 ****  ****    0 ROOT
