@<TRIPOS>MOLECULE
GVQ
   30    31     1     0     0
SMALL
No Charge or Current Charge


@<TRIPOS>ATOM
      1 C1           0.7820    -3.3090     4.8580 ca         1 GVQ      -0.099000
      2 C2          -0.2900    -4.1030     5.3020 ca         1 GVQ      -0.101500
      3 C3          -1.5210    -3.5070     5.6170 ca         1 GVQ       0.119000
      4 C4          -1.6820    -2.1200     5.4850 ca         1 GVQ      -0.101500
      5 C5           0.8580    -0.3280     0.5760 ca         1 GVQ      -0.111500
      6 C6           1.8590    -1.0170    -0.1290 ca         1 GVQ      -0.109000
      7 C7           2.8470    -1.7250     0.5740 ca         1 GVQ      -0.111500
      8 C8           2.8360    -1.7420     1.9800 ca         1 GVQ      -0.102500
      9 C9           1.8270    -1.0820     4.2290 c3         1 GVQ       0.024900
     10 C11          0.8460    -0.3450     1.9810 ca         1 GVQ      -0.102500
     11 C12          1.8390    -1.0480     2.6970 ca         1 GVQ      -0.081300
     12 C13          0.6360    -1.9110     4.7290 ca         1 GVQ      -0.066300
     13 C14         -0.6110    -1.3240     5.0410 ca         1 GVQ      -0.099000
     14 C15          1.9050     0.3390     4.8600 c3         1 GVQ       0.158800
     15 N1           3.1640     1.0420     4.5260 n8         1 GVQ      -0.999200
     16 Cl1         -2.8620    -4.5000     6.1710 cl         1 GVQ      -0.206000
     17 H1           1.7290    -3.7830     4.6120 ha         1 GVQ       0.117000
     18 H2          -0.1670    -5.1790     5.4010 ha         1 GVQ       0.129000
     19 H4          -2.6390    -1.6610     5.7240 ha         1 GVQ       0.129000
     20 H14         -0.7660    -0.2530     4.9370 ha         1 GVQ       0.117000
     21 H6           1.8670    -1.0040    -1.2170 ha         1 GVQ       0.112000
     22 H11          0.0600     0.1860     2.5120 ha         1 GVQ       0.114000
     23 H7           3.6220    -2.2610     0.0300 ha         1 GVQ       0.112500
     24 H8           3.6070    -2.2970     2.5110 ha         1 GVQ       0.114000
     25 H9           2.7360    -1.5930     4.5700 hc         1 GVQ       0.075700
     26 H151         1.0660     0.9550     4.5080 h1         1 GVQ       0.031200
     27 H152         1.8340     0.2570     5.9530 h1         1 GVQ       0.031200
     28 H1N1         3.1080     2.0090     4.8670 hn         1 GVQ       0.397000
     29 H1N2         3.2170     1.1470     3.5060 hn         1 GVQ       0.397000
     30 H5           0.0890     0.2170     0.0330 ha         1 GVQ       0.112500
@<TRIPOS>BOND
     1     1     2 ar  
     2     1    12 ar  
     3     1    17 1   
     4     2     3 ar  
     5     2    18 1   
     6     3     4 ar  
     7     3    16 1   
     8     4    13 ar  
     9     4    19 1   
    10     5     6 ar  
    11     5    10 ar  
    12     5    30 1   
    13     6     7 ar  
    14     6    21 1   
    15     7     8 ar  
    16     7    23 1   
    17     8    11 ar  
    18     8    24 1   
    19     9    11 1   
    20     9    12 1   
    21     9    14 1   
    22     9    25 1   
    23    10    11 ar  
    24    10    22 1   
    25    12    13 ar  
    26    13    20 1   
    27    14    15 1   
    28    14    26 1   
    29    14    27 1   
    30    15    28 1   
    31    15    29 1   
@<TRIPOS>SUBSTRUCTURE
     1 GVQ         1 TEMP              0 ****  ****    0 ROOT
