@<TRIPOS>MOLECULE
GVQ
   30    31     1     0     0
SMALL
bcc


@<TRIPOS>ATOM
      1 C1           0.6690    -3.2740     4.7420 ca         1 GVQ      -0.117000
      2 C2          -0.3980    -4.0460     5.1710 ca         1 GVQ      -0.119500
      3 C3          -1.5540    -3.4130     5.6040 ca         1 GVQ       0.027400
      4 C4          -1.6460    -2.0330     5.6130 ca         1 GVQ      -0.119500
      5 C5           0.7940    -0.5700     0.5910 ca         1 GVQ      -0.129500
      6 C6           1.9180    -1.0290    -0.0860 ca         1 GVQ      -0.127000
      7 C7           2.9960    -1.5200     0.6360 ca         1 GVQ      -0.129500
      8 C8           2.9500    -1.5480     2.0250 ca         1 GVQ      -0.120500
      9 C9           1.8010    -1.1030     4.2270 c3         1 GVQ       0.024900
     10 C11          0.7510    -0.6020     1.9770 ca         1 GVQ      -0.120500
     11 C12          1.8300    -1.0920     2.7130 ca         1 GVQ      -0.081300
     12 C13          0.6080    -1.8810     4.7360 ca         1 GVQ      -0.066300
     13 C14         -0.5650    -1.2770     5.1780 ca         1 GVQ      -0.117000
     14 C15          1.8990     0.3190     4.7890 c3         1 GVQ       0.158800
     15 N1           3.1670     0.9200     4.4130 n8         1 GVQ      -0.888800
     16 CL1         -2.8980    -4.3660     6.1470 cl         1 GVQ      -0.114400
     17 H1           1.5700    -3.7710     4.4030 ha         1 GVQ       0.135000
     18 H2          -0.3260    -5.1250     5.1700 ha         1 GVQ       0.147000
     19 H4          -2.5470    -1.5430     5.9560 ha         1 GVQ       0.147000
     20 H14         -0.6590    -0.1990     5.1960 ha         1 GVQ       0.135000
     21 H6           1.9500    -1.0070    -1.1670 ha         1 GVQ       0.130000
     22 H11         -0.1370    -0.2460     2.4860 ha         1 GVQ       0.132000
     23 H7           3.8760    -1.8830     0.1210 ha         1 GVQ       0.130500
     24 H8           3.7960    -1.9350     2.5810 ha         1 GVQ       0.132000
     25 H9           2.6990    -1.6280     4.5680 hc         1 GVQ       0.075700
     26 H151         1.0280     0.9060     4.4680 h1         1 GVQ       0.031200
     27 H152         1.8550     0.2650     5.8800 h1         1 GVQ       0.031200
     28 H1N1         3.2470     1.8280     4.8520 hn         1 GVQ       0.341800
     29 H1N2         3.1750     1.0990     3.4160 hn         1 GVQ       0.341800
     30 H5          -0.0540    -0.1870     0.0380 ha         1 GVQ       0.130500
@<TRIPOS>BOND
     1     1     2 ar  
     2     1    12 ar  
     3     1    17 1   
     4     2     3 ar  
     5     2    18 1   
     6     3     4 ar  
     7     3    16 1   
     8     4    13 ar  
     9     4    19 1   
    10     5     6 ar  
    11     5    10 ar  
    12     5    30 1   
    13     6     7 ar  
    14     6    21 1   
    15     7     8 ar  
    16     7    23 1   
    17     8    11 ar  
    18     8    24 1   
    19     9    11 1   
    20     9    12 1   
    21     9    14 1   
    22     9    25 1   
    23    10    11 ar  
    24    10    22 1   
    25    12    13 ar  
    26    13    20 1   
    27    14    15 1   
    28    14    26 1   
    29    14    27 1   
    30    15    28 1   
    31    15    29 1   
@<TRIPOS>SUBSTRUCTURE
     1 GVQ         1 TEMP              0 ****  ****    0 ROOT
