@<TRIPOS>MOLECULE
GVR
   50    53     1     0     0
SMALL
abcg2


@<TRIPOS>ATOM
      1 O28         11.1270    10.6920   -19.8370 o          1 GVR      -0.581100
      2 C27         11.9230    10.5930   -18.9200 c          1 GVR       0.606100
      3 N29         12.8820     9.6650   -18.8460 ns         1 GVR      -0.366400
      4 O30         12.9190     8.6540   -19.7540 oh         1 GVR      -0.421100
      5 C26         11.8710    11.5620   -17.7420 c3         1 GVR       0.149500
      6 C25         10.5320    11.4200   -17.0080 c3         1 GVR      -0.043100
      7 C15         10.3800    12.4700   -15.9410 ca         1 GVR      -0.101300
      8 C16         10.5130    12.1350   -14.5750 ca         1 GVR      -0.116000
      9 C17         10.3800    13.0860   -13.6000 ca         1 GVR      -0.092000
     10 C20         10.1070    14.4300   -13.9350 ca         1 GVR      -0.034000
     11 C21          9.9540    15.4380   -12.9540 ca         1 GVR      -0.103000
     12 C19          9.9830    14.7780   -15.3050 ca         1 GVR      -0.031000
     13 C24          9.7000    16.1210   -15.6500 ca         1 GVR      -0.091000
     14 C23          9.5470    17.0700   -14.6810 ca         1 GVR      -0.103000
     15 C22          9.6780    16.7270   -13.3180 ca         1 GVR      -0.104000
     16 C18         10.1320    13.7740   -16.2840 ca         1 GVR      -0.085000
     17 N1          12.9750    11.3800   -16.8120 n7         1 GVR      -0.905300
     18 S2          14.2660    12.4020   -16.8650 sy         1 GVR       1.158600
     19 O13         14.5870    12.5710   -18.2720 o          1 GVR      -0.533500
     20 O14         15.2460    11.8550   -15.9430 o          1 GVR      -0.533500
     21 C3          13.7330    13.9600   -16.2230 ca         1 GVR      -0.304500
     22 C4          13.6250    14.1070   -14.8230 ca         1 GVR      -0.039000
     23 C5          13.2940    15.3260   -14.3080 ca         1 GVR      -0.099000
     24 C8          13.0600    16.4370   -15.1520 ca         1 GVR       0.010000
     25 C9          12.7650    17.7170   -14.6350 ca         1 GVR      -0.105000
     26 C7          13.1300    16.2620   -16.5570 ca         1 GVR      -0.065000
     27 C6          13.4820    14.9970   -17.0780 ca         1 GVR       0.025000
     28 C12         12.8790    17.3650   -17.4050 ca         1 GVR      -0.086000
     29 C11         12.5910    18.5930   -16.8750 ca         1 GVR      -0.114000
     30 C10         12.5410    18.7710   -15.4780 ca         1 GVR      -0.089000
     31 H29         13.4690     9.5530   -18.0320 hn         1 GVR       0.355500
     32 H26         11.9010    12.5660   -18.1770 h1         1 GVR       0.082700
     33 H30         13.5390     8.9300   -20.4430 ho         1 GVR       0.448000
     34 H251         9.7330    11.5100   -17.7440 hc         1 GVR       0.075200
     35 H252        10.4570    10.4180   -16.5770 hc         1 GVR       0.075200
     36 H1          12.7330    11.0770   -15.8750 hn         1 GVR       0.498000
     37 H16         10.7070    11.1050   -14.2960 ha         1 GVR       0.111000
     38 H18         10.0270    14.0510   -17.3290 ha         1 GVR       0.117000
     39 H17         10.4830    12.8130   -12.5570 ha         1 GVR       0.116000
     40 H21         10.0570    15.1730   -11.9080 ha         1 GVR       0.114000
     41 H22          9.5650    17.4920   -12.5600 ha         1 GVR       0.114000
     42 H24          9.6110    16.3870   -16.6970 ha         1 GVR       0.117000
     43 H23          9.3380    18.0960   -14.9550 ha         1 GVR       0.115000
     44 H4          13.8130    13.2730   -14.1610 ha         1 GVR       0.127000
     45 H6          13.5720    14.8770   -18.1500 ha         1 GVR       0.139000
     46 H5          13.2150    15.4540   -13.2360 ha         1 GVR       0.119000
     47 H9          12.7100    17.8490   -13.5620 ha         1 GVR       0.119000
     48 H10         12.3150    19.7490   -15.0740 ha         1 GVR       0.116000
     49 H12         12.9260    17.2260   -18.4780 ha         1 GVR       0.119000
     50 H11         12.4040    19.4350   -17.5290 ha         1 GVR       0.118000
@<TRIPOS>BOND
     1     1     2 2   
     2     2     3 1   
     3     2     5 1   
     4     3     4 1   
     5     3    31 1   
     6     4    33 1   
     7     5     6 1   
     8     5    17 1   
     9     5    32 1   
    10     6     7 1   
    11     6    34 1   
    12     6    35 1   
    13     7     8 ar  
    14     7    16 ar  
    15     8     9 ar  
    16     8    37 1   
    17     9    10 ar  
    18     9    39 1   
    19    10    11 ar  
    20    10    12 ar  
    21    11    15 ar  
    22    11    40 1   
    23    12    13 ar  
    24    12    16 ar  
    25    13    14 ar  
    26    13    42 1   
    27    14    15 ar  
    28    14    43 1   
    29    15    41 1   
    30    16    38 1   
    31    17    18 1   
    32    17    36 1   
    33    18    19 2   
    34    18    20 2   
    35    18    21 1   
    36    21    22 ar  
    37    21    27 ar  
    38    22    23 ar  
    39    22    44 1   
    40    23    24 ar  
    41    23    46 1   
    42    24    25 ar  
    43    24    26 ar  
    44    25    30 ar  
    45    25    47 1   
    46    26    27 ar  
    47    26    28 ar  
    48    27    45 1   
    49    28    29 ar  
    50    28    49 1   
    51    29    30 ar  
    52    29    50 1   
    53    30    48 1   
@<TRIPOS>SUBSTRUCTURE
     1 GVR         1 TEMP              0 ****  ****    0 ROOT
