@<TRIPOS>MOLECULE
GVR
   50    53     1     0     0
SMALL
No Charge or Current Charge


@<TRIPOS>ATOM
      1 O28         11.3070    10.4380   -19.9950 o          1 GVR      -0.581100
      2 C27         11.9580    10.4480   -18.9550 c          1 GVR       0.606100
      3 N29         12.9040     9.4720   -18.6590 ns         1 GVR      -0.366400
      4 O30         12.9450     8.2150   -19.3800 oh         1 GVR      -0.421100
      5 C26         11.8100    11.5620   -17.8640 c3         1 GVR       0.149500
      6 C25         10.4760    11.4270   -17.0940 c3         1 GVR      -0.043100
      7 C15         10.3070    12.5410   -16.0610 ca         1 GVR      -0.101300
      8 C16         10.5580    12.2920   -14.6980 ca         1 GVR      -0.116000
      9 C17         10.4510    13.3290   -13.7550 ca         1 GVR      -0.092000
     10 C20         10.0860    14.6230   -14.1670 ca         1 GVR      -0.034000
     11 C21          9.9740    15.6640   -13.2260 ca         1 GVR      -0.103000
     12 C19          9.8280    14.8780   -15.5320 ca         1 GVR      -0.031000
     13 C24          9.4570    16.1720   -15.9450 ca         1 GVR      -0.091000
     14 C23          9.3410    17.2060   -15.0010 ca         1 GVR      -0.103000
     15 C22          9.6000    16.9530   -13.6430 ca         1 GVR      -0.104000
     16 C18          9.9430    13.8380   -16.4730 ca         1 GVR      -0.085000
     17 N1          12.9180    11.5940   -16.8540 n7         1 GVR      -0.905300
     18 S2          14.3160    12.4200   -17.2290 sy         1 GVR       1.158600
     19 O13         14.2840    12.6740   -18.6700 o          1 GVR      -0.533500
     20 O14         15.3930    11.6700   -16.5810 o          1 GVR      -0.533500
     21 C3          13.9510    13.9280   -16.3330 ca         1 GVR      -0.304500
     22 C4          14.1590    13.9920   -14.9390 ca         1 GVR      -0.039000
     23 C5          13.8390    15.1640   -14.2340 ca         1 GVR      -0.099000
     24 C8          13.3150    16.2800   -14.9120 ca         1 GVR       0.010000
     25 C9          13.0050    17.4580   -14.2070 ca         1 GVR      -0.105000
     26 C7          13.1030    16.2180   -16.3070 ca         1 GVR      -0.065000
     27 C6          13.4150    15.0410   -17.0140 ca         1 GVR       0.025000
     28 C12         12.5790    17.3360   -16.9850 ca         1 GVR      -0.086000
     29 C11         12.2740    18.5110   -16.2770 ca         1 GVR      -0.114000
     30 C10         12.4870    18.5730   -14.8890 ca         1 GVR      -0.089000
     31 H29         13.3060     9.4830   -17.7200 hn         1 GVR       0.355500
     32 H26         11.7590    12.5150   -18.4100 h1         1 GVR       0.082700
     33 H30         13.9000     8.1100   -19.6060 ho         1 GVR       0.448000
     34 H251         9.6440    11.4500   -17.8090 hc         1 GVR       0.075200
     35 H252        10.4370    10.4420   -16.6110 hc         1 GVR       0.075200
     36 H1          12.5970    12.1960   -16.0930 hn         1 GVR       0.498000
     37 H16         10.8450    11.2970   -14.3660 ha         1 GVR       0.111000
     38 H18          9.7540    14.0380   -17.5250 ha         1 GVR       0.117000
     39 H17         10.6520    13.1250   -12.7060 ha         1 GVR       0.116000
     40 H21         10.1740    15.4760   -12.1740 ha         1 GVR       0.114000
     41 H22          9.5150    17.7570   -12.9150 ha         1 GVR       0.114000
     42 H24          9.2610    16.3770   -16.9940 ha         1 GVR       0.117000
     43 H23          9.0570    18.2060   -15.3230 ha         1 GVR       0.115000
     44 H4          14.5630    13.1370   -14.3980 ha         1 GVR       0.127000
     45 H6          13.2400    14.9990   -18.0870 ha         1 GVR       0.139000
     46 H5          14.0010    15.2040   -13.1600 ha         1 GVR       0.119000
     47 H9          13.1630    17.5110   -13.1330 ha         1 GVR       0.119000
     48 H10         12.2470    19.4810   -14.3420 ha         1 GVR       0.116000
     49 H12         12.4090    17.2980   -18.0590 ha         1 GVR       0.119000
     50 H11         11.8700    19.3730   -16.8030 ha         1 GVR       0.118000
@<TRIPOS>BOND
     1     1     2 2   
     2     2     3 1   
     3     2     5 1   
     4     3     4 1   
     5     3    31 1   
     6     4    33 1   
     7     5     6 1   
     8     5    17 1   
     9     5    32 1   
    10     6     7 1   
    11     6    34 1   
    12     6    35 1   
    13     7     8 ar  
    14     7    16 ar  
    15     8     9 ar  
    16     8    37 1   
    17     9    10 ar  
    18     9    39 1   
    19    10    11 ar  
    20    10    12 ar  
    21    11    15 ar  
    22    11    40 1   
    23    12    13 ar  
    24    12    16 ar  
    25    13    14 ar  
    26    13    42 1   
    27    14    15 ar  
    28    14    43 1   
    29    15    41 1   
    30    16    38 1   
    31    17    18 1   
    32    17    36 1   
    33    18    19 2   
    34    18    20 2   
    35    18    21 1   
    36    21    22 ar  
    37    21    27 ar  
    38    22    23 ar  
    39    22    44 1   
    40    23    24 ar  
    41    23    46 1   
    42    24    25 ar  
    43    24    26 ar  
    44    25    30 ar  
    45    25    47 1   
    46    26    27 ar  
    47    26    28 ar  
    48    27    45 1   
    49    28    29 ar  
    50    28    49 1   
    51    29    30 ar  
    52    29    50 1   
    53    30    48 1   
@<TRIPOS>SUBSTRUCTURE
     1 GVR         1 TEMP              0 ****  ****    0 ROOT
