@<TRIPOS>MOLECULE
GVS
   50    52     1     0     0
SMALL
abcg2


@<TRIPOS>ATOM
      1 CAE         -7.9530     0.0090    -1.4110 cx         1 GVS      -0.063400
      2 CAO         -6.8830    -0.9050    -1.9010 cx         1 GVS      -0.063400
      3 CAF         -6.5130     0.3500    -1.1760 cx         1 GVS      -0.463700
      4 SAG         -5.8780     0.2380     0.4620 s6         1 GVS       1.231100
      5 OAP         -5.8880     1.5730     1.0400 o          1 GVS      -0.527000
      6 OAB         -6.5480    -0.8570     1.1450 o          1 GVS      -0.527000
      7 NAH         -4.2930    -0.2140     0.3390 n7         1 GVS      -0.865300
      8 CAI         -3.3350     0.7080    -0.2680 c3         1 GVS       0.297900
      9 CAJ         -1.9840     0.2480     0.0170 c1         1 GVS      -0.159100
     10 CAK         -0.8690    -0.1540     0.2290 cg         1 GVS      -0.101300
     11 CAL          0.4210    -0.6480     0.5420 cc         1 GVS      -0.255300
     12 CAQ          1.4610    -0.5660    -0.3310 cd         1 GVS       0.068600
     13 CAC          0.7030    -1.2770     1.8070 cc         1 GVS       0.806500
     14 NAA         -0.2650    -1.3990     2.7070 nv         1 GVS      -1.020200
     15 NAD          1.8990    -1.7430     2.0960 nd         1 GVS      -0.776100
     16 CAM          2.9190    -1.6480     1.2260 c          1 GVS       0.714400
     17 OAN          4.0460    -2.0570     1.4670 o          1 GVS      -0.550000
     18 NAR          2.6780    -1.0480    -0.0270 n          1 GVS      -0.299000
     19 CAT          3.8040    -0.9250    -0.9480 cy         1 GVS       0.065400
     20 CAS          4.5370    -2.2310    -1.2840 cy         1 GVS       0.144100
     21 OAZ          4.4470    -1.9500    -2.6860 oq         1 GVS      -0.446000
     22 CBA          3.4800    -0.9280    -2.4540 cy         1 GVS       0.144100
     23 CAU          4.7550     0.1840    -0.5220 c3         1 GVS      -0.148400
     24 CAV          4.1200     1.5490    -0.5220 c          1 GVS       0.602100
     25 OBB          3.0660     1.8140    -1.0480 o          1 GVS      -0.514000
     26 OAW          4.8720     2.4320     0.1090 os         1 GVS      -0.441100
     27 CAX          4.4180     3.7970     0.1610 c3         1 GVS       0.167600
     28 CAY          5.4420     4.5930     0.9310 c3         1 GVS      -0.098100
     29 HAE1        -8.4790     0.6320    -2.1220 hc         1 GVS       0.087700
     30 HAE2        -8.5480    -0.3170    -0.5680 hc         1 GVS       0.087700
     31 HAO1        -6.7560    -1.8510    -1.3920 hc         1 GVS       0.087700
     32 HAO2        -6.6560    -0.9280    -2.9580 hc         1 GVS       0.087700
     33 HAF         -6.0750     1.1710    -1.7320 h1         1 GVS       0.126700
     34 HAH         -4.1940    -1.1720     0.0170 hn         1 GVS       0.483000
     35 HAI1        -3.4600     0.7940    -1.3530 h1         1 GVS       0.069700
     36 HAI2        -3.4870     1.7020     0.1550 h1         1 GVS       0.069700
     37 HAQ          1.3290    -0.1060    -1.2970 h4         1 GVS       0.222000
     38 HAA1        -1.1960    -1.0570     2.5360 hn         1 GVS       0.511000
     39 HAA2        -0.0800    -1.8520     3.5860 hn         1 GVS       0.511000
     40 HAS1         5.5670    -2.3220    -0.9370 h1         1 GVS       0.071200
     41 HAS2         3.9790    -3.1310    -1.0090 h1         1 GVS       0.071200
     42 HBA1         2.4670    -1.2620    -2.6970 h1         1 GVS       0.071200
     43 HBA2         3.6940    -0.0090    -3.0020 h1         1 GVS       0.071200
     44 HAU1         5.1790    -0.0350     0.4590 hc         1 GVS       0.102200
     45 HAU2         5.6020     0.2110    -1.2150 hc         1 GVS       0.102200
     46 HAX1         4.3020     4.1830    -0.8540 h1         1 GVS       0.049700
     47 HAX2         3.4430     3.8370     0.6510 h1         1 GVS       0.049700
     48 HAY1         5.1130     5.6300     0.9930 hc         1 GVS       0.049033
     49 HAY2         5.5590     4.2200     1.9480 hc         1 GVS       0.049033
     50 HAY3         6.4140     4.5810     0.4390 hc         1 GVS       0.049033
@<TRIPOS>BOND
     1     1     2 1   
     2     1     3 1   
     3     1    29 1   
     4     1    30 1   
     5     2     3 1   
     6     2    31 1   
     7     2    32 1   
     8     3     4 1   
     9     3    33 1   
    10     4     5 2   
    11     4     6 2   
    12     4     7 1   
    13     7     8 1   
    14     7    34 1   
    15     8     9 1   
    16     8    35 1   
    17     8    36 1   
    18     9    10 3   
    19    10    11 1   
    20    11    12 2   
    21    11    13 1   
    22    12    18 1   
    23    12    37 1   
    24    13    14 1   
    25    13    15 2   
    26    14    38 1   
    27    14    39 1   
    28    15    16 1   
    29    16    17 2   
    30    16    18 1   
    31    18    19 1   
    32    19    20 1   
    33    19    22 1   
    34    19    23 1   
    35    20    21 1   
    36    20    40 1   
    37    20    41 1   
    38    21    22 1   
    39    22    42 1   
    40    22    43 1   
    41    23    24 1   
    42    23    44 1   
    43    23    45 1   
    44    24    25 2   
    45    24    26 1   
    46    26    27 1   
    47    27    28 1   
    48    27    46 1   
    49    27    47 1   
    50    28    48 1   
    51    28    49 1   
    52    28    50 1   
@<TRIPOS>SUBSTRUCTURE
     1 GVS         1 TEMP              0 ****  ****    0 ROOT
