@<TRIPOS>MOLECULE
GVS
   50    52     1     0     0
SMALL
No Charge or Current Charge


@<TRIPOS>ATOM
      1 CAE         -7.6550    -0.3460    -0.3910 cx         1 GVS      -0.063400
      2 CAO         -6.5300    -1.1390     0.2390 cx         1 GVS      -0.063400
      3 CAF         -6.2250    -0.1210    -0.8420 cx         1 GVS      -0.463700
      4 SAG         -5.3480     1.4470    -0.4400 s6         1 GVS       1.231100
      5 OAP         -5.3400     2.2890    -1.6370 o          1 GVS      -0.527000
      6 OAB         -5.8170     1.9400     0.8570 o          1 GVS      -0.527000
      7 NAH         -3.8120     0.8660    -0.2220 n7         1 GVS      -0.865300
      8 CAI         -2.6890     1.7550    -0.5220 c3         1 GVS       0.297900
      9 CAJ         -1.4320     1.0320    -0.3150 c1         1 GVS      -0.159100
     10 CAK         -0.4060     0.4140    -0.1100 cg         1 GVS      -0.101300
     11 CAL          0.7900    -0.3130     0.1670 cc         1 GVS      -0.255300
     12 CAQ          1.8530    -0.3080    -0.7050 cd         1 GVS       0.068600
     13 CAC          0.9590    -1.0780     1.3630 cc         1 GVS       0.806500
     14 NAA         -0.0080    -1.1600     2.2680 nv         1 GVS      -1.020200
     15 NAD          2.0120    -1.7520     1.6750 nd         1 GVS      -0.776100
     16 CAM          3.1030    -1.7390     0.8110 c          1 GVS       0.714400
     17 OAN          4.0990    -2.3590     1.1420 o          1 GVS      -0.550000
     18 NAR          3.0250    -1.0110    -0.4030 n          1 GVS      -0.299000
     19 CAT          4.1820    -0.9270    -1.3270 cy         1 GVS       0.065400
     20 CAS          4.9110    -2.2720    -1.7080 cy         1 GVS       0.144100
     21 OAZ          5.1260    -1.7200    -3.0520 oq         1 GVS      -0.446000
     22 CBA          3.8990    -0.9320    -2.8810 cy         1 GVS       0.144100
     23 CAU          5.1250     0.2010    -0.8190 c3         1 GVS      -0.148400
     24 CAV          4.4300     1.5610    -0.8150 c          1 GVS       0.602100
     25 OBB          4.2280     2.2210    -1.8250 o          1 GVS      -0.514000
     26 OAW          3.9030     1.8500     0.4150 os         1 GVS      -0.441100
     27 CAX          3.0940     3.0300     0.5470 c3         1 GVS       0.167600
     28 CAY          2.5430     3.0460     1.9810 c3         1 GVS      -0.098100
     29 HAE1        -8.3270    -0.8720    -1.0660 hc         1 GVS       0.087700
     30 HAE2        -8.1370     0.4160     0.2190 hc         1 GVS       0.087700
     31 HAO1        -6.2610    -0.9030     1.2670 hc         1 GVS       0.087700
     32 HAO2        -6.4520    -2.1950    -0.0150 hc         1 GVS       0.087700
     33 HAF         -5.9220    -0.4610    -1.8290 h1         1 GVS       0.126700
     34 HAH         -3.8040     0.0790    -0.8640 hn         1 GVS       0.483000
     35 HAI1        -2.7190     2.1080    -1.5630 h1         1 GVS       0.069700
     36 HAI2        -2.7000     2.6370     0.1320 h1         1 GVS       0.069700
     37 HAQ          1.8650     0.2430    -1.6420 h4         1 GVS       0.222000
     38 HAA1        -0.9320    -0.9570     1.9150 hn         1 GVS       0.511000
     39 HAA2         0.0750    -1.9600     2.8790 hn         1 GVS       0.511000
     40 HAS1         5.8480    -2.4750    -1.1770 h1         1 GVS       0.071200
     41 HAS2         4.2630    -3.1570    -1.7300 h1         1 GVS       0.071200
     42 HBA1         3.0100    -1.4980    -3.1870 h1         1 GVS       0.071200
     43 HBA2         3.9470     0.0390    -3.3860 h1         1 GVS       0.071200
     44 HAU1         5.4520    -0.0330     0.2000 hc         1 GVS       0.102200
     45 HAU2         6.0010     0.2740    -1.4730 hc         1 GVS       0.102200
     46 HAX1         3.6880     3.9360     0.3650 h1         1 GVS       0.049700
     47 HAX2         2.2550     3.0110    -0.1620 h1         1 GVS       0.049700
     48 HAY1         1.9120     3.9290     2.1350 hc         1 GVS       0.049033
     49 HAY2         1.9360     2.1520     2.1690 hc         1 GVS       0.049033
     50 HAY3         3.3610     3.0740     2.7090 hc         1 GVS       0.049033
@<TRIPOS>BOND
     1     1     2 1   
     2     1     3 1   
     3     1    29 1   
     4     1    30 1   
     5     2     3 1   
     6     2    31 1   
     7     2    32 1   
     8     3     4 1   
     9     3    33 1   
    10     4     5 2   
    11     4     6 2   
    12     4     7 1   
    13     7     8 1   
    14     7    34 1   
    15     8     9 1   
    16     8    35 1   
    17     8    36 1   
    18     9    10 3   
    19    10    11 1   
    20    11    12 2   
    21    11    13 1   
    22    12    18 1   
    23    12    37 1   
    24    13    14 1   
    25    13    15 2   
    26    14    38 1   
    27    14    39 1   
    28    15    16 1   
    29    16    17 2   
    30    16    18 1   
    31    18    19 1   
    32    19    20 1   
    33    19    22 1   
    34    19    23 1   
    35    20    21 1   
    36    20    40 1   
    37    20    41 1   
    38    21    22 1   
    39    22    42 1   
    40    22    43 1   
    41    23    24 1   
    42    23    44 1   
    43    23    45 1   
    44    24    25 2   
    45    24    26 1   
    46    26    27 1   
    47    27    28 1   
    48    27    46 1   
    49    27    47 1   
    50    28    48 1   
    51    28    49 1   
    52    28    50 1   
@<TRIPOS>SUBSTRUCTURE
     1 GVS         1 TEMP              0 ****  ****    0 ROOT
