@<TRIPOS>MOLECULE
GVT
   96    95     1     0     0
SMALL
No Charge or Current Charge


@<TRIPOS>ATOM
      1 C3         -18.4750     3.9760    -1.4190 c3         1 GVT      -0.088100
      2 C4         -17.4680     3.4760    -0.3660 c3         1 GVT      -0.075400
      3 C5         -16.2800     2.7050    -0.9820 c3         1 GVT      -0.075400
      4 C6         -15.2710     2.2040     0.0740 c3         1 GVT      -0.074400
      5 C7         -14.0830     1.4330    -0.5430 c3         1 GVT      -0.074400
      6 C8         -13.0750     0.9310     0.5140 c3         1 GVT      -0.074400
      7 C9         -11.8870     0.1610    -0.1030 c3         1 GVT      -0.073400
      8 C10        -10.8790    -0.3420     0.9540 c3         1 GVT      -0.074400
      9 C11         -9.6900    -1.1130     0.3390 c3         1 GVT      -0.079400
     10 C12         -8.6870    -1.6130     1.3960 c3         1 GVT       0.162600
     11 O13         -7.6360    -2.3070     0.7070 os         1 GVT      -0.447000
     12 C14         -6.6090    -2.8390     1.5690 c3         1 GVT       0.164600
     13 C15         -5.5390    -3.5480     0.7040 c3         1 GVT       0.161600
     14 O16         -4.7740    -2.5550    -0.0070 os         1 GVT      -0.433000
     15 C17         -3.7450    -3.0930    -0.8610 c3         1 GVT       0.161600
     16 C18         -2.9970    -1.9250    -1.5490 c3         1 GVT       0.162600
     17 O19         -2.1800    -1.2490    -0.5740 os         1 GVT      -0.435000
     18 C20         -1.4370    -0.1270    -1.0920 c3         1 GVT       0.161600
     19 C21         -0.6000     0.4950     0.0510 c3         1 GVT       0.162600
     20 O22          0.4890    -0.3920     0.3750 os         1 GVT      -0.436000
     21 C23          1.3410     0.0730     1.4410 c3         1 GVT       0.161600
     22 C24          2.4670    -0.9620     1.6750 c3         1 GVT       0.162600
     23 O25          3.3970    -0.9040     0.5750 os         1 GVT      -0.436000
     24 C26          4.4940    -1.8350     0.6710 c3         1 GVT       0.162600
     25 C27          5.4160    -1.6580    -0.5590 c3         1 GVT       0.161600
     26 O28          6.1350    -0.4150    -0.4340 os         1 GVT      -0.435000
     27 C29          7.0260    -0.1280    -1.5300 c3         1 GVT       0.162600
     28 C30          7.7370     1.2200    -1.2640 c3         1 GVT       0.162600
     29 O31          8.6980     1.0440    -0.2040 os         1 GVT      -0.435000
     30 C32          9.4240     2.2390     0.1480 c3         1 GVT       0.161600
     31 C33         10.4230     1.9070     1.2830 c3         1 GVT       0.161600
     32 O34         11.5000     1.1150     0.7450 os         1 GVT      -0.435000
     33 C35         12.4980     0.7280     1.7110 c3         1 GVT       0.162600
     34 C36         13.5930    -0.1040     1.0030 c3         1 GVT       0.161600
     35 O37         14.3850     0.7680     0.1720 os         1 GVT      -0.433000
     36 C38         15.4380     0.1030    -0.5570 c3         1 GVT       0.160600
     37 C39         16.2170     1.1490    -1.4000 c3         1 GVT       0.164600
     38 OXT         16.9640     2.0570    -0.5660 oh         1 GVT      -0.709000
     39 H3C1       -17.9880     4.6570    -2.1280 hc         1 GVT       0.031367
     40 H3C2       -18.8990     3.1350    -1.9810 hc         1 GVT       0.031367
     41 H3C3       -19.2980     4.5160    -0.9350 hc         1 GVT       0.031367
     42 H4C1       -17.0890     4.3350     0.2010 hc         1 GVT       0.036700
     43 H4C2       -17.9910     2.8270     0.3480 hc         1 GVT       0.036700
     44 H5C1       -16.6630     1.8480    -1.5500 hc         1 GVT       0.037700
     45 H5C2       -15.7600     3.3570    -1.6960 hc         1 GVT       0.037700
     46 H6C1       -14.8880     3.0610     0.6420 hc         1 GVT       0.036700
     47 H6C2       -15.7910     1.5530     0.7880 hc         1 GVT       0.036700
     48 H7C1       -14.4660     0.5760    -1.1110 hc         1 GVT       0.037700
     49 H7C2       -13.5630     2.0850    -1.2560 hc         1 GVT       0.037700
     50 H8C1       -12.6920     1.7880     1.0820 hc         1 GVT       0.036700
     51 H8C2       -13.5950     0.2800     1.2270 hc         1 GVT       0.036700
     52 H9C1       -12.2690    -0.6960    -0.6710 hc         1 GVT       0.039200
     53 H9C2       -11.3660     0.8120    -0.8160 hc         1 GVT       0.039200
     54 H101       -10.4960     0.5150     1.5230 hc         1 GVT       0.037200
     55 H102       -11.3990    -0.9930     1.6680 hc         1 GVT       0.037200
     56 H111       -10.0700    -1.9720    -0.2280 hc         1 GVT       0.052700
     57 H112        -9.1650    -0.4620    -0.3720 hc         1 GVT       0.052700
     58 H121        -8.2850    -0.7580     1.9550 h1         1 GVT       0.017700
     59 H122        -9.1980    -2.2830     2.1000 h1         1 GVT       0.017700
     60 H141        -6.1360    -2.0420     2.1570 h1         1 GVT       0.028200
     61 H142        -7.0400    -3.5680     2.2670 h1         1 GVT       0.028200
     62 H151        -4.8830    -4.1330     1.3610 h1         1 GVT       0.026200
     63 H152        -6.0300    -4.2410     0.0070 h1         1 GVT       0.026200
     64 H171        -3.0310    -3.6970    -0.2860 h1         1 GVT       0.026700
     65 H172        -4.1900    -3.7330    -1.6340 h1         1 GVT       0.026700
     66 H181        -2.3700    -2.3320    -2.3530 h1         1 GVT       0.027700
     67 H182        -3.7260    -1.2380    -1.9990 h1         1 GVT       0.027700
     68 H201        -0.7710    -0.4380    -1.9080 h1         1 GVT       0.028200
     69 H202        -2.1240     0.6340    -1.4830 h1         1 GVT       0.028200
     70 H211        -0.2110     1.4660    -0.2840 h1         1 GVT       0.028200
     71 H212        -1.2420     0.6680     0.9250 h1         1 GVT       0.028200
     72 H231         1.7830     1.0480     1.1960 h1         1 GVT       0.028700
     73 H232         0.7630     0.1830     2.3680 h1         1 GVT       0.028700
     74 H241         2.9780    -0.7210     2.6170 h1         1 GVT       0.028200
     75 H242         2.0300    -1.9650     1.7710 h1         1 GVT       0.028200
     76 H261         5.0720    -1.6700     1.5900 h1         1 GVT       0.027700
     77 H262         4.1160    -2.8650     0.6850 h1         1 GVT       0.027700
     78 H271         6.1180    -2.5000    -0.5990 h1         1 GVT       0.027200
     79 H272         4.8120    -1.6740    -1.4760 h1         1 GVT       0.027200
     80 H291         7.7750    -0.9220    -1.6480 h1         1 GVT       0.027200
     81 H292         6.4600    -0.0500    -2.4680 h1         1 GVT       0.027200
     82 H301         8.2420     1.5420    -2.1840 h1         1 GVT       0.027700
     83 H302         6.9920     1.9820    -0.9980 h1         1 GVT       0.027700
     84 H321         9.9700     2.6390    -0.7160 h1         1 GVT       0.028200
     85 H322         8.7310     3.0130     0.5030 h1         1 GVT       0.028200
     86 H331        10.8130     2.8460     1.6960 h1         1 GVT       0.027700
     87 H332         9.9020     1.3710     2.0860 h1         1 GVT       0.027700
     88 H351        12.9530     1.6090     2.1830 h1         1 GVT       0.028200
     89 H352        12.0430     0.1160     2.5010 h1         1 GVT       0.028200
     90 H361        14.2250    -0.5790     1.7650 h1         1 GVT       0.027700
     91 H362        13.1230    -0.8980     0.4070 h1         1 GVT       0.027700
     92 H381        16.1300    -0.4040     0.1290 h1         1 GVT       0.025700
     93 H382        15.0140    -0.6510    -1.2320 h1         1 GVT       0.025700
     94 H391        16.9000     0.6120    -2.0720 h1         1 GVT       0.024700
     95 H392        15.5060     1.7010    -2.0280 h1         1 GVT       0.024700
     96 HXT         17.3780     2.7210    -1.1650 ho         1 GVT       0.499000
@<TRIPOS>BOND
     1     1     2 1   
     2     1    39 1   
     3     1    40 1   
     4     1    41 1   
     5     2     3 1   
     6     2    42 1   
     7     2    43 1   
     8     3     4 1   
     9     3    44 1   
    10     3    45 1   
    11     4     5 1   
    12     4    46 1   
    13     4    47 1   
    14     5     6 1   
    15     5    48 1   
    16     5    49 1   
    17     6     7 1   
    18     6    50 1   
    19     6    51 1   
    20     7     8 1   
    21     7    52 1   
    22     7    53 1   
    23     8     9 1   
    24     8    54 1   
    25     8    55 1   
    26     9    10 1   
    27     9    56 1   
    28     9    57 1   
    29    10    11 1   
    30    10    58 1   
    31    10    59 1   
    32    11    12 1   
    33    12    13 1   
    34    12    60 1   
    35    12    61 1   
    36    13    14 1   
    37    13    62 1   
    38    13    63 1   
    39    14    15 1   
    40    15    16 1   
    41    15    64 1   
    42    15    65 1   
    43    16    17 1   
    44    16    66 1   
    45    16    67 1   
    46    17    18 1   
    47    18    19 1   
    48    18    68 1   
    49    18    69 1   
    50    19    20 1   
    51    19    70 1   
    52    19    71 1   
    53    20    21 1   
    54    21    22 1   
    55    21    72 1   
    56    21    73 1   
    57    22    23 1   
    58    22    74 1   
    59    22    75 1   
    60    23    24 1   
    61    24    25 1   
    62    24    76 1   
    63    24    77 1   
    64    25    26 1   
    65    25    78 1   
    66    25    79 1   
    67    26    27 1   
    68    27    28 1   
    69    27    80 1   
    70    27    81 1   
    71    28    29 1   
    72    28    82 1   
    73    28    83 1   
    74    29    30 1   
    75    30    31 1   
    76    30    84 1   
    77    30    85 1   
    78    31    32 1   
    79    31    86 1   
    80    31    87 1   
    81    32    33 1   
    82    33    34 1   
    83    33    88 1   
    84    33    89 1   
    85    34    35 1   
    86    34    90 1   
    87    34    91 1   
    88    35    36 1   
    89    36    37 1   
    90    36    92 1   
    91    36    93 1   
    92    37    38 1   
    93    37    94 1   
    94    37    95 1   
    95    38    96 1   
@<TRIPOS>SUBSTRUCTURE
     1 GVT         1 TEMP              0 ****  ****    0 ROOT
