@<TRIPOS>MOLECULE
GVT
   96    95     1     0     0
SMALL
abcg2


@<TRIPOS>ATOM
      1 C3         -16.7760     5.2770    -0.1250 c3         1 GVT      -0.088100
      2 C4         -15.8230     4.4740     0.7500 c3         1 GVT      -0.075400
      3 C5         -14.8280     3.6480    -0.0570 c3         1 GVT      -0.075400
      4 C6         -13.8720     2.8410     0.8130 c3         1 GVT      -0.074400
      5 C7         -12.8670     2.0240     0.0090 c3         1 GVT      -0.074400
      6 C8         -11.9120     1.2200     0.8830 c3         1 GVT      -0.074400
      7 C9         -10.9030     0.4040     0.0860 c3         1 GVT      -0.073400
      8 C10         -9.9540    -0.3940     0.9710 c3         1 GVT      -0.074400
      9 C11         -8.9460    -1.2190     0.1780 c3         1 GVT      -0.079400
     10 C12         -8.0170    -1.9920     1.0920 c3         1 GVT       0.162600
     11 O13         -7.1200    -2.7590     0.3230 os         1 GVT      -0.447000
     12 C14         -6.2130    -3.4840     1.1130 c3         1 GVT       0.164600
     13 C15         -5.3120    -4.3120     0.2340 c3         1 GVT       0.161600
     14 O16         -4.5180    -3.4710    -0.5650 os         1 GVT      -0.433000
     15 C17         -3.5990    -4.1820    -1.3530 c3         1 GVT       0.161600
     16 C18         -2.8300    -3.2260    -2.2280 c3         1 GVT       0.162600
     17 O19         -2.0660    -2.3580    -1.4320 os         1 GVT      -0.435000
     18 C20         -1.3240    -1.4400    -2.1940 c3         1 GVT       0.161600
     19 C21         -0.6020    -0.4810    -1.2830 c3         1 GVT       0.162600
     20 O22          0.3680    -1.1660    -0.5340 os         1 GVT      -0.436000
     21 C23          1.0370    -0.3290     0.3750 c3         1 GVT       0.161600
     22 C24          2.1010    -1.1070     1.1050 c3         1 GVT       0.162600
     23 O25          3.1160    -1.4800     0.2090 os         1 GVT      -0.436000
     24 C26          4.1790    -2.1470     0.8390 c3         1 GVT       0.162600
     25 C27          5.2620    -2.4450    -0.1660 c3         1 GVT       0.161600
     26 O28          5.8020    -1.2410    -0.6480 os         1 GVT      -0.435000
     27 C29          6.8690    -1.4410    -1.5400 c3         1 GVT       0.162600
     28 C30          7.3440    -0.1120    -2.0680 c3         1 GVT       0.162600
     29 O31          7.8710     0.6580    -1.0190 os         1 GVT      -0.435000
     30 C32          8.3380     1.9110    -1.4500 c3         1 GVT       0.161600
     31 C33          8.8330     2.7080    -0.2720 c3         1 GVT       0.161600
     32 O34          9.9560     2.0820     0.2940 os         1 GVT      -0.435000
     33 C35         10.4770     2.7940     1.3870 c3         1 GVT       0.162600
     34 C36         11.6500     2.0510     1.9730 c3         1 GVT       0.161600
     35 O37         12.7030     2.0060     1.0450 os         1 GVT      -0.433000
     36 C38         13.8490     1.3780     1.5620 c3         1 GVT       0.160600
     37 C39         14.9340     1.3430     0.5180 c3         1 GVT       0.164600
     38 OXT         15.3430     2.6560     0.2130 oh         1 GVT      -0.709000
     39 H3C1       -16.2310     5.9620    -0.7780 hc         1 GVT       0.031367
     40 H3C2       -17.3720     4.6220    -0.7620 hc         1 GVT       0.031367
     41 H3C3       -17.4670     5.8720     0.4740 hc         1 GVT       0.031367
     42 H4C1       -15.2760     5.1510     1.4140 hc         1 GVT       0.036700
     43 H4C2       -16.3980     3.8100     1.4030 hc         1 GVT       0.036700
     44 H5C1       -15.3750     2.9700    -0.7220 hc         1 GVT       0.037700
     45 H5C2       -14.2520     4.3140    -0.7090 hc         1 GVT       0.037700
     46 H6C1       -13.3320     3.5200     1.4830 hc         1 GVT       0.036700
     47 H6C2       -14.4480     2.1710     1.4600 hc         1 GVT       0.036700
     48 H7C1       -13.4050     1.3440    -0.6610 hc         1 GVT       0.037700
     49 H7C2       -12.2900     2.6940    -0.6380 hc         1 GVT       0.037700
     50 H8C1       -11.3780     1.9010     1.5550 hc         1 GVT       0.036700
     51 H8C2       -12.4910     0.5500     1.5290 hc         1 GVT       0.036700
     52 H9C1       -11.4360    -0.2800    -0.5840 hc         1 GVT       0.039200
     53 H9C2       -10.3230     1.0730    -0.5600 hc         1 GVT       0.039200
     54 H101        -9.4200     0.2920     1.6370 hc         1 GVT       0.037200
     55 H102       -10.5370    -1.0570     1.6190 hc         1 GVT       0.037200
     56 H111        -9.4780    -1.9170    -0.4770 hc         1 GVT       0.052700
     57 H112        -8.3580    -0.5600    -0.4680 hc         1 GVT       0.052700
     58 H121        -7.4670    -1.2940     1.7400 h1         1 GVT       0.017700
     59 H122        -8.6040    -2.6420     1.7580 h1         1 GVT       0.017700
     60 H141        -5.6090    -2.8110     1.7380 h1         1 GVT       0.028200
     61 H142        -6.7390    -4.1650     1.7960 h1         1 GVT       0.028200
     62 H151        -4.6900    -4.9420     0.8850 h1         1 GVT       0.026200
     63 H152        -5.9120    -4.9930    -0.3880 h1         1 GVT       0.026200
     64 H171        -2.9060    -4.7600    -0.7260 h1         1 GVT       0.026700
     65 H172        -4.1100    -4.9020    -2.0080 h1         1 GVT       0.026700
     66 H181        -2.1910    -3.8180    -2.8980 h1         1 GVT       0.027700
     67 H182        -3.5250    -2.6620    -2.8670 h1         1 GVT       0.027700
     68 H201        -0.6050    -1.9570    -2.8450 h1         1 GVT       0.028200
     69 H202        -1.9800    -0.8510    -2.8500 h1         1 GVT       0.028200
     70 H211        -0.1420     0.3000    -1.9040 h1         1 GVT       0.028200
     71 H212        -1.3260     0.0230    -0.6260 h1         1 GVT       0.028200
     72 H231         1.4920     0.5290    -0.1390 h1         1 GVT       0.028700
     73 H232         0.3400     0.0810     1.1200 h1         1 GVT       0.028700
     74 H241         2.4990    -0.4690     1.9070 h1         1 GVT       0.028200
     75 H242         1.6580    -1.9880     1.5920 h1         1 GVT       0.028200
     76 H261         4.5900    -1.5430     1.6610 h1         1 GVT       0.027700
     77 H262         3.8470    -3.0980     1.2780 h1         1 GVT       0.027700
     78 H271         6.0290    -3.0540     0.3310 h1         1 GVT       0.027200
     79 H272         4.8580    -3.0530    -0.9890 h1         1 GVT       0.027200
     80 H291         7.6970    -1.9740    -1.0510 h1         1 GVT       0.027200
     81 H292         6.5600    -2.0550    -2.3980 h1         1 GVT       0.027200
     82 H301         8.1020    -0.3010    -2.8410 h1         1 GVT       0.027700
     83 H302         6.5120     0.4120    -2.5610 h1         1 GVT       0.027700
     84 H321         9.1410     1.7970    -2.1930 h1         1 GVT       0.028200
     85 H322         7.5380     2.4870    -1.9350 h1         1 GVT       0.028200
     86 H331         9.0790     3.7200    -0.6250 h1         1 GVT       0.027700
     87 H332         8.0280     2.8170     0.4700 h1         1 GVT       0.027700
     88 H351        10.7850     3.8070     1.0880 h1         1 GVT       0.028200
     89 H352         9.7230     2.9130     2.1780 h1         1 GVT       0.028200
     90 H361        11.9540     2.5720     2.8920 h1         1 GVT       0.027700
     91 H362        11.3410     1.0390     2.2700 h1         1 GVT       0.027700
     92 H381        14.2080     1.9000     2.4620 h1         1 GVT       0.025700
     93 H382        13.6310     0.3440     1.8620 h1         1 GVT       0.025700
     94 H391        15.7580     0.7410     0.9240 h1         1 GVT       0.024700
     95 H392        14.5660     0.8140    -0.3710 h1         1 GVT       0.024700
     96 HXT         16.0610     2.6050    -0.4240 ho         1 GVT       0.499000
@<TRIPOS>BOND
     1     1     2 1   
     2     1    39 1   
     3     1    40 1   
     4     1    41 1   
     5     2     3 1   
     6     2    42 1   
     7     2    43 1   
     8     3     4 1   
     9     3    44 1   
    10     3    45 1   
    11     4     5 1   
    12     4    46 1   
    13     4    47 1   
    14     5     6 1   
    15     5    48 1   
    16     5    49 1   
    17     6     7 1   
    18     6    50 1   
    19     6    51 1   
    20     7     8 1   
    21     7    52 1   
    22     7    53 1   
    23     8     9 1   
    24     8    54 1   
    25     8    55 1   
    26     9    10 1   
    27     9    56 1   
    28     9    57 1   
    29    10    11 1   
    30    10    58 1   
    31    10    59 1   
    32    11    12 1   
    33    12    13 1   
    34    12    60 1   
    35    12    61 1   
    36    13    14 1   
    37    13    62 1   
    38    13    63 1   
    39    14    15 1   
    40    15    16 1   
    41    15    64 1   
    42    15    65 1   
    43    16    17 1   
    44    16    66 1   
    45    16    67 1   
    46    17    18 1   
    47    18    19 1   
    48    18    68 1   
    49    18    69 1   
    50    19    20 1   
    51    19    70 1   
    52    19    71 1   
    53    20    21 1   
    54    21    22 1   
    55    21    72 1   
    56    21    73 1   
    57    22    23 1   
    58    22    74 1   
    59    22    75 1   
    60    23    24 1   
    61    24    25 1   
    62    24    76 1   
    63    24    77 1   
    64    25    26 1   
    65    25    78 1   
    66    25    79 1   
    67    26    27 1   
    68    27    28 1   
    69    27    80 1   
    70    27    81 1   
    71    28    29 1   
    72    28    82 1   
    73    28    83 1   
    74    29    30 1   
    75    30    31 1   
    76    30    84 1   
    77    30    85 1   
    78    31    32 1   
    79    31    86 1   
    80    31    87 1   
    81    32    33 1   
    82    33    34 1   
    83    33    88 1   
    84    33    89 1   
    85    34    35 1   
    86    34    90 1   
    87    34    91 1   
    88    35    36 1   
    89    36    37 1   
    90    36    92 1   
    91    36    93 1   
    92    37    38 1   
    93    37    94 1   
    94    37    95 1   
    95    38    96 1   
@<TRIPOS>SUBSTRUCTURE
     1 GVT         1 TEMP              0 ****  ****    0 ROOT
