@<TRIPOS>MOLECULE
GVV
   26    26     1     0     0
SMALL
abcg2


@<TRIPOS>ATOM
      1 N1          -1.1750    -0.3810    -0.0260 ns         1 GVV      -0.143000
      2 C4           0.1690     0.0100    -0.0270 ca         1 GVV      -0.044000
      3 C5           0.6240     1.3230    -0.0600 ca         1 GVV      -0.104000
      4 C6           1.9870     1.6030    -0.0680 ca         1 GVV      -0.116000
      5 C7           2.9330     0.5900    -0.0400 ca         1 GVV      -0.064300
      6 C8           2.4790    -0.7270    -0.0060 ca         1 GVV      -0.177000
      7 C10          4.4060     0.8820    -0.0360 c3         1 GVV      -0.043800
      8 C1          -4.8230     0.4140     0.1350 c3         1 GVV      -0.076100
      9 C2          -3.5750    -0.4180    -0.0930 c3         1 GVV      -0.159400
     10 C3          -2.2930     0.3890    -0.0430 c          1 GVV       0.604100
     11 O1          -2.2810     1.6070    -0.0330 o          1 GVV      -0.586100
     12 C9           1.1270    -1.0210     0.0010 ca         1 GVV       0.084100
     13 O2           0.6510    -2.2860     0.0290 oh         1 GVV      -0.559100
     14 H1          -1.3280    -1.3780    -0.0250 hn         1 GVV       0.165000
     15 H2          -0.0810     2.1370    -0.0820 ha         1 GVV       0.151000
     16 H3           2.3040     2.6380    -0.0980 ha         1 GVV       0.117000
     17 H4           3.1950    -1.5430     0.0130 ha         1 GVV       0.110000
     18 H5           4.8600     0.6200     0.9220 hc         1 GVV       0.041700
     19 H6           4.9280     0.3090    -0.8030 hc         1 GVV       0.041700
     20 H7           4.6020     1.9380    -0.2170 hc         1 GVV       0.041700
     21 H8          -4.9320     1.1940    -0.6180 hc         1 GVV       0.043700
     22 H9          -5.7070    -0.2200     0.0860 hc         1 GVV       0.043700
     23 H10         -4.8130     0.8930     1.1150 hc         1 GVV       0.043700
     24 H11         -3.5170    -1.2280     0.6400 hc         1 GVV       0.057700
     25 H12         -3.6210    -0.9100    -1.0700 hc         1 GVV       0.057700
     26 H13          1.3730    -2.9240     0.0280 ho         1 GVV       0.471000
@<TRIPOS>BOND
     1     1     2 1   
     2     1    10 1   
     3     1    14 1   
     4     2     3 ar  
     5     2    12 ar  
     6     3     4 ar  
     7     3    15 1   
     8     4     5 ar  
     9     4    16 1   
    10     5     6 ar  
    11     5     7 1   
    12     6    12 ar  
    13     6    17 1   
    14     7    18 1   
    15     7    19 1   
    16     7    20 1   
    17     8     9 1   
    18     8    21 1   
    19     8    22 1   
    20     8    23 1   
    21     9    10 1   
    22     9    24 1   
    23     9    25 1   
    24    10    11 2   
    25    12    13 1   
    26    13    26 1   
@<TRIPOS>SUBSTRUCTURE
     1 GVV         1 TEMP              0 ****  ****    0 ROOT
