@<TRIPOS>MOLECULE
GVV
   26    26     1     0     0
SMALL
No Charge or Current Charge


@<TRIPOS>ATOM
      1 N1          -1.2570    -0.2390    -0.2820 ns         1 GVV      -0.143000
      2 C4           0.1290     0.0770    -0.1880 ca         1 GVV      -0.044000
      3 C5           0.6410     1.3830    -0.3680 ca         1 GVV      -0.104000
      4 C6           2.0210     1.6260    -0.2600 ca         1 GVV      -0.116000
      5 C7           2.9110     0.5770     0.0280 ca         1 GVV      -0.064300
      6 C8           2.4080    -0.7220     0.2120 ca         1 GVV      -0.177000
      7 C10          4.4040     0.8470     0.1470 c3         1 GVV      -0.043800
      8 C1          -4.5620     0.0740     0.6650 c3         1 GVV      -0.076100
      9 C2          -3.6970    -0.2700    -0.5680 c3         1 GVV      -0.159400
     10 C3          -2.3800     0.5210    -0.5790 c          1 GVV       0.604100
     11 O1          -2.3560     1.7140    -0.8600 o          1 GVV      -0.586100
     12 C9           1.0290    -0.9710     0.1050 ca         1 GVV       0.084100
     13 O2           0.5660    -2.2450     0.2890 oh         1 GVV      -0.559100
     14 H1          -1.4560    -1.2130    -0.0900 hn         1 GVV       0.165000
     15 H2          -0.0110     2.2220    -0.5890 ha         1 GVV       0.151000
     16 H3           2.3990     2.6370    -0.3990 ha         1 GVV       0.117000
     17 H4           3.0930    -1.5350     0.4400 ha         1 GVV       0.110000
     18 H5           4.6770     1.0730     1.1850 hc         1 GVV       0.041700
     19 H6           4.9930    -0.0210    -0.1730 hc         1 GVV       0.041700
     20 H7           4.7080     1.6980    -0.4730 hc         1 GVV       0.041700
     21 H8          -4.8180     1.1400     0.6770 hc         1 GVV       0.043700
     22 H9          -5.4960    -0.5010     0.6500 hc         1 GVV       0.043700
     23 H10         -4.0280    -0.1640     1.5930 hc         1 GVV       0.043700
     24 H11         -3.4910    -1.3470    -0.5520 hc         1 GVV       0.057700
     25 H12         -4.2680    -0.0170    -1.4690 hc         1 GVV       0.057700
     26 H13          1.3310    -2.8310     0.4820 ho         1 GVV       0.471000
@<TRIPOS>BOND
     1     1     2 1   
     2     1    10 1   
     3     1    14 1   
     4     2     3 ar  
     5     2    12 ar  
     6     3     4 ar  
     7     3    15 1   
     8     4     5 ar  
     9     4    16 1   
    10     5     6 ar  
    11     5     7 1   
    12     6    12 ar  
    13     6    17 1   
    14     7    18 1   
    15     7    19 1   
    16     7    20 1   
    17     8     9 1   
    18     8    21 1   
    19     8    22 1   
    20     8    23 1   
    21     9    10 1   
    22     9    24 1   
    23     9    25 1   
    24    10    11 2   
    25    12    13 1   
    26    13    26 1   
@<TRIPOS>SUBSTRUCTURE
     1 GVV         1 TEMP              0 ****  ****    0 ROOT
