@<TRIPOS>MOLECULE
GVW
  102   105     1     0     0
SMALL
abcg2


@<TRIPOS>ATOM
      1 C4          -3.7980     2.8810     0.3480 c6         1 GVW      -0.056700
      2 C5          -4.5410     1.5750     0.6130 c6         1 GVW      -0.073400
      3 C6          -4.7890     0.7930    -0.6750 c6         1 GVW      -0.058700
      4 C7          -5.4970    -0.5400    -0.4460 c3         1 GVW      -0.087400
      5 C8          -4.7480    -1.5200     0.4670 c3         1 GVW       0.088700
      6 C24         -0.9570    -1.5480     0.0950 c3         1 GVW       0.028700
      7 C53         -3.5100     3.6490     1.6350 c6         1 GVW      -0.071400
      8 C52         -2.7590     4.9480     1.3630 c6         1 GVW      -0.073400
      9 C51         -3.5130     5.8190     0.3630 c6         1 GVW      -0.073400
     10 C50         -3.8000     5.0540    -0.9250 c6         1 GVW      -0.069400
     11 C3          -4.5540     3.7540    -0.6570 c6         1 GVW      -0.059700
     12 C2          -4.8380     2.9760    -1.9390 c6         1 GVW      -0.069400
     13 C1          -5.5640     1.6640    -1.6630 c6         1 GVW      -0.070400
     14 C9          -5.4590    -2.8850     0.5020 c3         1 GVW       0.169300
     15 O21         -5.3960    -3.5030    -0.7650 oh         1 GVW      -0.661000
     16 N22         -3.3720    -1.6480     0.0330 ns         1 GVW      -0.476900
     17 C23         -2.3040    -1.4090     0.7950 c          1 GVW       0.603100
     18 O49         -2.3410    -1.0730     1.9720 o          1 GVW      -0.624100
     19 C40         -0.1420    -2.6970     0.7200 c3         1 GVW      -0.037100
     20 C41          1.2780    -2.6790     0.2340 ca         1 GVW      -0.122300
     21 C42          2.2560    -1.9680     0.9300 ca         1 GVW      -0.063000
     22 C43          3.5420    -1.8410     0.4400 ca         1 GVW      -0.168500
     23 C44          3.8910    -2.4330    -0.7730 ca         1 GVW       0.135100
     24 O45          5.1630    -2.2500    -1.1840 os         1 GVW      -0.347100
     25 C46          5.5490    -2.7650    -2.4400 c3         1 GVW       0.147900
     26 C47          2.9340    -3.1650    -1.4720 ca         1 GVW      -0.168500
     27 C48          1.6450    -3.2750    -0.9640 ca         1 GVW      -0.063000
     28 N25         -0.2740    -0.2810     0.2250 ns         1 GVW      -0.485900
     29 O39          0.5070    -0.1800    -1.8980 o          1 GVW      -0.611100
     30 C27          1.2180     1.5260    -0.3870 c3         1 GVW       0.044700
     31 C38          0.4920     2.7500    -0.9450 c3         1 GVW      -0.108100
     32 N28          2.5530     1.3830    -0.9230 ns         1 GVW      -0.509900
     33 C29          3.6240     2.0310    -0.4410 c          1 GVW       0.600100
     34 O37          3.5750     2.8000     0.5060 o          1 GVW      -0.587100
     35 C30          4.9040     1.7500    -1.2170 c3         1 GVW       0.087800
     36 N31          6.0910     2.0270    -0.4560 n3         1 GVW      -0.692600
     37 C32          6.3060     1.0660     0.6130 c6         1 GVW       0.124800
     38 C33          7.5590     1.4220     1.3870 c6         1 GVW       0.154600
     39 O34          8.6910     1.4810     0.5480 os         1 GVW      -0.452000
     40 C35          8.4940     2.4150    -0.4910 c6         1 GVW       0.154600
     41 C36          7.2630     2.0840    -1.3120 c6         1 GVW       0.124800
     42 H1          -2.8290     2.6200    -0.1070 hc         1 GVW       0.041700
     43 H2          -3.9670     0.9790     1.3260 hc         1 GVW       0.045200
     44 H3          -5.5050     1.7950     1.0930 hc         1 GVW       0.045200
     45 H4          -3.8110     0.5850    -1.1270 hc         1 GVW       0.047700
     46 H5          -6.4850    -0.3590    -0.0080 hc         1 GVW       0.051700
     47 H6          -5.6770    -1.0150    -1.4160 hc         1 GVW       0.051700
     48 H7          -4.7280    -1.1080     1.4750 h1         1 GVW       0.086700
     49 H8          -1.0870    -1.7430    -0.9700 h1         1 GVW       0.085700
     50 H9          -4.4590     3.8780     2.1370 hc         1 GVW       0.039700
     51 H10         -2.9400     3.0170     2.3230 hc         1 GVW       0.039700
     52 H11         -2.5940     5.4940     2.2960 hc         1 GVW       0.038700
     53 H12         -1.7660     4.7140     0.9630 hc         1 GVW       0.038700
     54 H13         -4.4590     6.1410     0.8100 hc         1 GVW       0.038200
     55 H14         -2.9470     6.7280     0.1450 hc         1 GVW       0.038200
     56 H15         -4.3720     5.6790    -1.6160 hc         1 GVW       0.037700
     57 H16         -2.8520     4.8220    -1.4280 hc         1 GVW       0.037700
     58 H17         -5.5220     4.0130    -0.2000 hc         1 GVW       0.044700
     59 H18         -5.4240     3.5950    -2.6250 hc         1 GVW       0.038700
     60 H19         -3.8890     2.7640    -2.4460 hc         1 GVW       0.038700
     61 H20         -5.7220     1.1180    -2.5980 hc         1 GVW       0.038700
     62 H21         -6.5590     1.8760    -1.2550 hc         1 GVW       0.038700
     63 H22         -6.5170    -2.6750     0.6980 h1         1 GVW       0.072700
     64 H23         -4.5670    -3.9960    -0.8040 ho         1 GVW       0.457000
     65 H24         -4.2080    -2.4540     3.0710 hc         1 GVW       0.048533
     66 H25         -5.9500    -2.7350     3.2000 hc         1 GVW       0.048533
     67 H26         -4.8180    -3.9580     3.7540 hc         1 GVW       0.048533
     68 H27         -5.6220    -5.7910     2.3790 hc         1 GVW       0.048533
     69 H28         -6.9600    -4.7510     1.9140 hc         1 GVW       0.048533
     70 H29         -6.0090    -5.5680     0.6710 hc         1 GVW       0.048533
     71 H30         -3.4570    -5.0530     1.7670 ho         1 GVW       0.450000
     72 H31         -3.2160    -1.8840    -0.9340 hn         1 GVW       0.318500
     73 H32         -0.1700    -2.6000     1.8070 hc         1 GVW       0.064700
     74 H33         -0.6340    -3.6390     0.4670 hc         1 GVW       0.064700
     75 H34          2.0050    -1.4960     1.8730 ha         1 GVW       0.112500
     76 H35          4.2810    -1.2740     0.9910 ha         1 GVW       0.122000
     77 H36          6.5890    -2.4820    -2.5850 h1         1 GVW       0.041033
     78 H37          5.4740    -3.8550    -2.4790 h1         1 GVW       0.041033
     79 H38          4.9530    -2.3450    -3.2550 h1         1 GVW       0.041033
     80 H39          3.1690    -3.6500    -2.4100 ha         1 GVW       0.122000
     81 H40          0.9110    -3.8370    -1.5300 ha         1 GVW       0.112500
     82 H41         -0.2020     0.1050     1.1540 hn         1 GVW       0.332500
     83 H42          1.2900     1.6180     0.6990 h1         1 GVW       0.075700
     84 H43          0.4310     2.7030    -2.0310 hc         1 GVW       0.052367
     85 H44         -0.5220     2.8170    -0.5470 hc         1 GVW       0.052367
     86 H45          1.0220     3.6590    -0.6650 hc         1 GVW       0.052367
     87 H46          2.6640     0.7680    -1.7150 hn         1 GVW       0.332500
     88 H47          4.8840     0.7210    -1.6110 h1         1 GVW       0.049700
     89 H48          4.8890     2.4110    -2.0910 h1         1 GVW       0.049700
     90 H50          5.4590     1.0800     1.3020 h1         1 GVW       0.043450
     91 H51          6.3910     0.0390     0.2170 h1         1 GVW       0.043450
     92 H52          7.4100     2.3840     1.8970 h1         1 GVW       0.052200
     93 H53          7.7550     0.6650     2.1490 h1         1 GVW       0.052200
     94 H54          8.3960     3.4300    -0.0810 h1         1 GVW       0.052200
     95 H55          9.3820     2.3940    -1.1240 h1         1 GVW       0.052200
     96 H56          7.4250     1.1330    -1.8500 h1         1 GVW       0.043450
     97 H57          7.1230     2.8610    -2.0670 h1         1 GVW       0.043450
     98 C10         -5.0000    -3.8640     1.6040 c3         1 GVW       0.154000
     99 C11         -4.9900    -3.2060     2.9810 c3         1 GVW      -0.126100
    100 C12         -5.9530    -5.0620     1.6350 c3         1 GVW      -0.126100
    101 O13         -3.6940    -4.2870     1.2340 oh         1 GVW      -0.674000
    102 C26          0.4570     0.2600    -0.7600 c          1 GVW       0.592100
@<TRIPOS>BOND
     1     1     2 1   
     2     1     7 1   
     3     1    11 1   
     4     1    42 1   
     5     2     3 1   
     6     2    43 1   
     7     2    44 1   
     8     3     4 1   
     9     3    13 1   
    10     3    45 1   
    11     4     5 1   
    12     4    46 1   
    13     4    47 1   
    14     5    14 1   
    15     5    16 1   
    16     5    48 1   
    17     6    17 1   
    18     6    19 1   
    19     6    28 1   
    20     6    49 1   
    21     7     8 1   
    22     7    50 1   
    23     7    51 1   
    24     8     9 1   
    25     8    52 1   
    26     8    53 1   
    27     9    10 1   
    28     9    54 1   
    29     9    55 1   
    30    10    11 1   
    31    10    56 1   
    32    10    57 1   
    33    11    12 1   
    34    11    58 1   
    35    12    13 1   
    36    12    59 1   
    37    12    60 1   
    38    13    61 1   
    39    13    62 1   
    40    14    15 1   
    41    14    63 1   
    42    14    98 1   
    43    15    64 1   
    44    16    17 1   
    45    16    72 1   
    46    17    18 2   
    47    19    20 1   
    48    19    73 1   
    49    19    74 1   
    50    20    21 ar  
    51    20    27 ar  
    52    21    22 ar  
    53    21    75 1   
    54    22    23 ar  
    55    22    76 1   
    56    23    24 1   
    57    23    26 ar  
    58    24    25 1   
    59    25    77 1   
    60    25    78 1   
    61    25    79 1   
    62    26    27 ar  
    63    26    80 1   
    64    27    81 1   
    65    28    82 1   
    66    28   102 1   
    67    29   102 2   
    68    30    31 1   
    69    30    32 1   
    70    30    83 1   
    71    30   102 1   
    72    31    84 1   
    73    31    85 1   
    74    31    86 1   
    75    32    33 1   
    76    32    87 1   
    77    33    34 2   
    78    33    35 1   
    79    35    36 1   
    80    35    88 1   
    81    35    89 1   
    82    36    37 1   
    83    36    41 1   
    84    37    38 1   
    85    37    90 1   
    86    37    91 1   
    87    38    39 1   
    88    38    92 1   
    89    38    93 1   
    90    39    40 1   
    91    40    41 1   
    92    40    94 1   
    93    40    95 1   
    94    41    96 1   
    95    41    97 1   
    96    65    99 1   
    97    66    99 1   
    98    67    99 1   
    99    68   100 1   
   100    69   100 1   
   101    70   100 1   
   102    71   101 1   
   103    98    99 1   
   104    98   100 1   
   105    98   101 1   
@<TRIPOS>SUBSTRUCTURE
     1 GVW         1 TEMP              0 ****  ****    0 ROOT
