@<TRIPOS>MOLECULE
GVW
  102   105     1     0     0
SMALL
No Charge or Current Charge


@<TRIPOS>ATOM
      1 C4          -3.8830     2.8660     0.0070 c6         1 GVW      -0.056700
      2 C5          -4.6550     1.5530     0.3040 c6         1 GVW      -0.073400
      3 C6          -4.6200     0.5970    -0.9220 c6         1 GVW      -0.058700
      4 C7          -5.3200    -0.7770    -0.6510 c3         1 GVW      -0.087400
      5 C8          -4.6980    -1.6720     0.4640 c3         1 GVW       0.088700
      6 C24         -0.8390    -1.3170     0.4110 c3         1 GVW       0.028700
      7 C53         -3.8750     3.8110     1.2400 c6         1 GVW      -0.071400
      8 C52         -3.1100     5.1230     0.9350 c6         1 GVW      -0.073400
      9 C51         -3.6940     5.8370    -0.3080 c6         1 GVW      -0.073400
     10 C50         -3.7130     4.8980    -1.5390 c6         1 GVW      -0.069400
     11 C3          -4.4880     3.5860    -1.2360 c6         1 GVW      -0.059700
     12 C2          -4.4950     2.6380    -2.4660 c6         1 GVW      -0.069400
     13 C1          -5.2340     1.3110    -2.1570 c6         1 GVW      -0.070400
     14 C9          -5.4310    -3.0540     0.5950 c3         1 GVW       0.169300
     15 O21         -5.1610    -3.8490    -0.5730 oh         1 GVW      -0.661000
     16 N22         -3.2510    -1.8160     0.2350 ns         1 GVW      -0.476900
     17 C23         -2.2650    -1.2450     1.0110 c          1 GVW       0.603100
     18 O49         -2.5050    -0.6830     2.0740 o          1 GVW      -0.624100
     19 C40         -0.1090    -2.6130     0.8430 c3         1 GVW      -0.037100
     20 C41          1.3250    -2.6860     0.3260 ca         1 GVW      -0.122300
     21 C42          2.4030    -2.3390     1.1640 ca         1 GVW      -0.063000
     22 C43          3.7190    -2.3700     0.6710 ca         1 GVW      -0.168500
     23 C44          3.9730    -2.7470    -0.6570 ca         1 GVW       0.135100
     24 O45          5.2840    -2.7530    -1.0860 os         1 GVW      -0.347100
     25 C46          5.6470    -3.0680    -2.4410 c3         1 GVW       0.147900
     26 C47          2.8950    -3.1010    -1.4970 ca         1 GVW      -0.168500
     27 C48          1.5790    -3.0690    -1.0050 ca         1 GVW      -0.063000
     28 N25         -0.0790    -0.1130     0.8180 ns         1 GVW      -0.485900
     29 O39          0.9870     0.2780    -1.1600 o          1 GVW      -0.611100
     30 C27          1.4640     1.8160     0.6830 c3         1 GVW       0.044700
     31 C38          0.4770     2.9990     0.8220 c3         1 GVW      -0.108100
     32 N28          2.6630     2.2130    -0.0830 ns         1 GVW      -0.509900
     33 C29          3.7070     2.9760     0.4020 c          1 GVW       0.600100
     34 O37          3.7020     3.4270     1.5420 o          1 GVW      -0.587100
     35 C30          4.8800     3.1980    -0.5970 c3         1 GVW       0.087800
     36 N31          6.1190     2.3780    -0.4040 n3         1 GVW      -0.692600
     37 C32          5.8810     0.8980    -0.4430 c6         1 GVW       0.124800
     38 C33          7.2000     0.1040    -0.2050 c6         1 GVW       0.154600
     39 O34          8.2110     0.5090    -1.1590 os         1 GVW      -0.452000
     40 C35          8.5100     1.9240    -1.0870 c6         1 GVW       0.154600
     41 C36          7.2210     2.7630    -1.3380 c6         1 GVW       0.124800
     42 H1          -2.8390     2.6010    -0.2180 hc         1 GVW       0.041700
     43 H2          -4.2150     1.0690     1.1830 hc         1 GVW       0.045200
     44 H3          -5.6970     1.7810     0.5700 hc         1 GVW       0.045200
     45 H4          -3.5710     0.3770    -1.1620 hc         1 GVW       0.047700
     46 H5          -6.3760    -0.6040    -0.4050 hc         1 GVW       0.051700
     47 H6          -5.3240    -1.3520    -1.5850 hc         1 GVW       0.051700
     48 H7          -4.8510    -1.1340     1.4070 h1         1 GVW       0.086700
     49 H8          -0.9440    -1.3160    -0.6820 h1         1 GVW       0.085700
     50 H9          -4.9060     4.0470     1.5380 hc         1 GVW       0.039700
     51 H10         -3.4090     3.3060     2.0970 hc         1 GVW       0.039700
     52 H11         -3.1560     5.7920     1.8060 hc         1 GVW       0.038700
     53 H12         -2.0470     4.9010     0.7680 hc         1 GVW       0.038700
     54 H13         -4.7150     6.1820    -0.0900 hc         1 GVW       0.038200
     55 H14         -3.1030     6.7350    -0.5330 hc         1 GVW       0.038200
     56 H15         -4.1720     5.4180    -2.3900 hc         1 GVW       0.037700
     57 H16         -2.6810     4.6630    -1.8370 hc         1 GVW       0.037700
     58 H17         -5.5310     3.8530    -1.0100 hc         1 GVW       0.044700
     59 H18         -4.9760     3.1350    -3.3200 hc         1 GVW       0.038700
     60 H19         -3.4640     2.4190    -2.7750 hc         1 GVW       0.038700
     61 H20         -5.1820     0.6540    -3.0360 hc         1 GVW       0.038700
     62 H21         -6.3000     1.5140    -1.9820 hc         1 GVW       0.038700
     63 H22         -6.5070    -2.8370     0.6530 h1         1 GVW       0.072700
     64 H23         -4.4340    -4.4420    -0.2700 ho         1 GVW       0.457000
     65 H24         -4.3160    -2.3730     3.2140 hc         1 GVW       0.048533
     66 H25         -6.0710    -2.6280     3.3010 hc         1 GVW       0.048533
     67 H26         -4.9590    -3.7920     4.0440 hc         1 GVW       0.048533
     68 H27         -5.7780    -5.7640     2.8430 hc         1 GVW       0.048533
     69 H28         -7.0630    -4.8090     2.0830 hc         1 GVW       0.048533
     70 H29         -5.9730    -5.7870     1.0840 hc         1 GVW       0.048533
     71 H30         -3.5080    -4.9080     2.5380 ho         1 GVW       0.450000
     72 H31         -2.9540    -2.2820    -0.6130 hn         1 GVW       0.318500
     73 H32         -0.1180    -2.6790     1.9380 hc         1 GVW       0.064700
     74 H33         -0.6790    -3.4800     0.4870 hc         1 GVW       0.064700
     75 H34          2.2220    -2.0350     2.1920 ha         1 GVW       0.112500
     76 H35          4.5460    -2.0970     1.3210 ha         1 GVW       0.122000
     77 H36          6.7350    -2.9990    -2.5680 h1         1 GVW       0.041033
     78 H37          5.3380    -4.0880    -2.7010 h1         1 GVW       0.041033
     79 H38          5.1780    -2.3670    -3.1430 h1         1 GVW       0.041033
     80 H39          3.0570    -3.3960    -2.5300 ha         1 GVW       0.122000
     81 H40          0.7530    -3.3320    -1.6620 ha         1 GVW       0.112500
     82 H41         -0.2160     0.2380     1.7600 hn         1 GVW       0.332500
     83 H42          1.7810     1.4960     1.6840 h1         1 GVW       0.075700
     84 H43          0.1350     3.3370    -0.1640 hc         1 GVW       0.052367
     85 H44         -0.4040     2.7060     1.4060 hc         1 GVW       0.052367
     86 H45          0.9500     3.8470     1.3300 hc         1 GVW       0.052367
     87 H46          2.7580     1.8590    -1.0300 hn         1 GVW       0.332500
     88 H47          4.4840     3.0350    -1.6080 h1         1 GVW       0.049700
     89 H48          5.1330     4.2640    -0.5340 h1         1 GVW       0.049700
     90 H50          5.1530     0.6020     0.3260 h1         1 GVW       0.043450
     91 H51          5.4610     0.6020    -1.4160 h1         1 GVW       0.043450
     92 H52          7.5690     0.2870     0.8140 h1         1 GVW       0.052200
     93 H53          7.0170    -0.9740    -0.3120 h1         1 GVW       0.052200
     94 H54          8.9220     2.1580    -0.0950 h1         1 GVW       0.052200
     95 H55          9.2710     2.1710    -1.8410 h1         1 GVW       0.052200
     96 H56          6.9050     2.6170    -2.3820 h1         1 GVW       0.043450
     97 H57          7.4660     3.8290    -1.2220 h1         1 GVW       0.043450
     98 C10         -5.0680    -3.9330     1.8560 c3         1 GVW       0.154000
     99 C11         -5.1050    -3.1320     3.1800 c3         1 GVW      -0.126100
    100 C12         -6.0260    -5.1460     1.9710 c3         1 GVW      -0.126100
    101 O13         -3.7450    -4.4660     1.6940 oh         1 GVW      -0.674000
    102 C26          0.7830     0.5930     0.0060 c          1 GVW       0.592100
@<TRIPOS>BOND
     1     1     2 1   
     2     1     7 1   
     3     1    11 1   
     4     1    42 1   
     5     2     3 1   
     6     2    43 1   
     7     2    44 1   
     8     3     4 1   
     9     3    13 1   
    10     3    45 1   
    11     4     5 1   
    12     4    46 1   
    13     4    47 1   
    14     5    14 1   
    15     5    16 1   
    16     5    48 1   
    17     6    17 1   
    18     6    19 1   
    19     6    28 1   
    20     6    49 1   
    21     7     8 1   
    22     7    50 1   
    23     7    51 1   
    24     8     9 1   
    25     8    52 1   
    26     8    53 1   
    27     9    10 1   
    28     9    54 1   
    29     9    55 1   
    30    10    11 1   
    31    10    56 1   
    32    10    57 1   
    33    11    12 1   
    34    11    58 1   
    35    12    13 1   
    36    12    59 1   
    37    12    60 1   
    38    13    61 1   
    39    13    62 1   
    40    14    15 1   
    41    14    63 1   
    42    14    98 1   
    43    15    64 1   
    44    16    17 1   
    45    16    72 1   
    46    17    18 2   
    47    19    20 1   
    48    19    73 1   
    49    19    74 1   
    50    20    21 ar  
    51    20    27 ar  
    52    21    22 ar  
    53    21    75 1   
    54    22    23 ar  
    55    22    76 1   
    56    23    24 1   
    57    23    26 ar  
    58    24    25 1   
    59    25    77 1   
    60    25    78 1   
    61    25    79 1   
    62    26    27 ar  
    63    26    80 1   
    64    27    81 1   
    65    28    82 1   
    66    28   102 1   
    67    29   102 2   
    68    30    31 1   
    69    30    32 1   
    70    30    83 1   
    71    30   102 1   
    72    31    84 1   
    73    31    85 1   
    74    31    86 1   
    75    32    33 1   
    76    32    87 1   
    77    33    34 2   
    78    33    35 1   
    79    35    36 1   
    80    35    88 1   
    81    35    89 1   
    82    36    37 1   
    83    36    41 1   
    84    37    38 1   
    85    37    90 1   
    86    37    91 1   
    87    38    39 1   
    88    38    92 1   
    89    38    93 1   
    90    39    40 1   
    91    40    41 1   
    92    40    94 1   
    93    40    95 1   
    94    41    96 1   
    95    41    97 1   
    96    65    99 1   
    97    66    99 1   
    98    67    99 1   
    99    68   100 1   
   100    69   100 1   
   101    70   100 1   
   102    71   101 1   
   103    98    99 1   
   104    98   100 1   
   105    98   101 1   
@<TRIPOS>SUBSTRUCTURE
     1 GVW         1 TEMP              0 ****  ****    0 ROOT
