@<TRIPOS>MOLECULE
GVX
   55    55     1     0     0
SMALL
bcc


@<TRIPOS>ATOM
      1 O01         -4.9210     4.7520    -1.5580 o          1 GVX      -0.844800
      2 C02         -5.7140     4.3640    -0.6740 c          1 GVX       0.904600
      3 O03         -6.9390     4.5920    -0.6250 o          1 GVX      -0.844800
      4 C04         -5.0960     3.4980     0.4540 c3         1 GVX       0.012500
      5 N05         -5.9560     3.2480     1.5990 n8         1 GVX      -0.889800
      6 C06         -4.6150     2.1720    -0.1400 c3         1 GVX      -0.044400
      7 C07         -3.8460     1.3200     0.8630 c3         1 GVX      -0.147400
      8 C08         -3.3500     0.0330     0.2530 c          1 GVX       0.667100
      9 O09         -4.0510    -0.6870    -0.4450 o          1 GVX      -0.600100
     10 N10         -2.0660    -0.2800     0.5130 ns         1 GVX      -0.572900
     11 C11         -1.4850    -1.5050     0.0390 c3         1 GVX       0.036700
     12 C12         -2.1530    -2.7280     0.6860 c          1 GVX       0.653100
     13 O13         -2.5610    -2.6940     1.8370 o          1 GVX      -0.641100
     14 N14         -2.1830    -3.8060    -0.0930 ns         1 GVX      -0.523900
     15 C15         -2.6670    -5.0970     0.3240 c3         1 GVX      -0.054000
     16 C16         -2.5300    -6.1260    -0.8180 c          1 GVX       0.924600
     17 O17         -2.9000    -7.2790    -0.5390 o          1 GVX      -0.839300
     18 O18         -2.0710    -5.7130    -1.9000 o          1 GVX      -0.839300
     19 C19         -0.0000    -1.5520     0.3870 c3         1 GVX       0.017700
     20 S20          0.8270    -0.1630    -0.4320 ss         1 GVX      -0.217700
     21 C21          2.4910    -0.3060     0.1360 cs         1 GVX       0.452000
     22 S22          3.0380    -1.5210     1.1220 s          1 GVX      -0.597400
     23 N23          3.2560     0.6740    -0.3240 ns         1 GVX      -0.471900
     24 C24          4.6710     0.8000    -0.0310 c3         1 GVX       0.094000
     25 C25          5.2140     2.1040    -0.6050 c3         1 GVX      -0.052100
     26 C26          6.6820     2.2360    -0.3100 ca         1 GVX      -0.075300
     27 C27          7.6280     1.6570    -1.1530 ca         1 GVX      -0.119500
     28 C28          8.9830     1.7400    -0.8650 ca         1 GVX      -0.129000
     29 C29          9.4130     2.4040     0.2760 ca         1 GVX      -0.132000
     30 C30          8.4790     2.9860     1.1240 ca         1 GVX      -0.129000
     31 C31          7.1240     2.9000     0.8310 ca         1 GVX      -0.119500
     32 H2          -4.2110     4.0320     0.8210 h1         1 GVX       0.029700
     33 H3          -6.1730     4.1330     2.0420 hn         1 GVX       0.324300
     34 H4          -6.8500     2.9130     1.2540 hn         1 GVX       0.324300
     35 H6          -5.4750     1.6100    -0.5160 hc         1 GVX       0.053700
     36 H7          -3.9810     2.3870    -1.0010 hc         1 GVX       0.053700
     37 H8          -3.0130     1.8940     1.2770 hc         1 GVX       0.053700
     38 H9          -4.4950     1.0710     1.7070 hc         1 GVX       0.053700
     39 H10         -1.5490     0.2830     1.1700 hn         1 GVX       0.312500
     40 H11         -1.6020    -1.5670    -1.0480 h1         1 GVX       0.083700
     41 H12         -1.8610    -3.7660    -1.0500 hn         1 GVX       0.341500
     42 H13         -2.1120    -5.4550     1.1960 h1         1 GVX       0.035700
     43 H14         -3.7170    -5.0390     0.6260 h1         1 GVX       0.035700
     44 H16          0.1520    -1.4780     1.4640 h1         1 GVX       0.101200
     45 H17          0.4390    -2.4860     0.0410 h1         1 GVX       0.101200
     46 H18          2.8480     1.3770    -0.9250 hn         1 GVX       0.322500
     47 H19          4.8180     0.7700     1.0500 h1         1 GVX       0.070200
     48 H20          5.2090    -0.0550    -0.4500 h1         1 GVX       0.070200
     49 H21          5.0480     2.1270    -1.6850 hc         1 GVX       0.055200
     50 H22          4.6670     2.9460    -0.1750 hc         1 GVX       0.055200
     51 H23          7.3010     1.1410    -2.0490 ha         1 GVX       0.132500
     52 H24          9.7040     1.2880    -1.5350 ha         1 GVX       0.127000
     53 H25         10.4690     2.4720     0.5030 ha         1 GVX       0.124000
     54 H26          8.8050     3.5080     2.0140 ha         1 GVX       0.127000
     55 H27          6.4030     3.3620     1.4960 ha         1 GVX       0.132500
@<TRIPOS>BOND
     1     1     2 1   
     2     2     3 1   
     3     2     4 1   
     4     4     5 1   
     5     4     6 1   
     6     4    32 1   
     7     5    33 1   
     8     5    34 1   
     9     6     7 1   
    10     6    35 1   
    11     6    36 1   
    12     7     8 1   
    13     7    37 1   
    14     7    38 1   
    15     8     9 2   
    16     8    10 1   
    17    10    11 1   
    18    10    39 1   
    19    11    12 1   
    20    11    19 1   
    21    11    40 1   
    22    12    13 2   
    23    12    14 1   
    24    14    15 1   
    25    14    41 1   
    26    15    16 1   
    27    15    42 1   
    28    15    43 1   
    29    16    17 1   
    30    16    18 1   
    31    19    20 1   
    32    19    44 1   
    33    19    45 1   
    34    20    21 1   
    35    21    22 2   
    36    21    23 1   
    37    23    24 1   
    38    23    46 1   
    39    24    25 1   
    40    24    47 1   
    41    24    48 1   
    42    25    26 1   
    43    25    49 1   
    44    25    50 1   
    45    26    27 ar  
    46    26    31 ar  
    47    27    28 ar  
    48    27    51 1   
    49    28    29 ar  
    50    28    52 1   
    51    29    30 ar  
    52    29    53 1   
    53    30    31 ar  
    54    30    54 1   
    55    31    55 1   
@<TRIPOS>SUBSTRUCTURE
     1 GVX         1 TEMP              0 ****  ****    0 ROOT
