@<TRIPOS>MOLECULE
GVX
   55    55     1     0     0
SMALL
No Charge or Current Charge


@<TRIPOS>ATOM
      1 O01         -2.5100     5.0380     2.4420 o          1 GVX      -0.739500
      2 C02         -2.8250     4.8410     1.2770 c          1 GVX       0.694000
      3 O03         -2.4640     5.5650     0.3570 o          1 GVX      -0.739500
      4 C04         -3.8660     3.6850     0.9650 c3         1 GVX       0.012500
      5 N05         -5.1070     4.0980     0.2130 n8         1 GVX      -1.000200
      6 C06         -3.1550     2.5000     0.2560 c3         1 GVX      -0.044400
      7 C07         -3.9990     1.2020     0.1740 c3         1 GVX      -0.147400
      8 C08         -3.1950     0.0570    -0.4490 c          1 GVX       0.600100
      9 O09         -2.9580    -0.0060    -1.6470 o          1 GVX      -0.600100
     10 N10         -2.7970    -0.9220     0.4360 ns         1 GVX      -0.505900
     11 C11         -1.9810    -2.1120     0.0880 c3         1 GVX       0.036700
     12 C12         -2.5560    -3.3840     0.7730 c          1 GVX       0.586100
     13 O13         -3.3190    -3.3430     1.7320 o          1 GVX      -0.641100
     14 N14         -2.1490    -4.5830     0.2230 ns         1 GVX      -0.456900
     15 C15         -2.5540    -5.9210     0.7140 c3         1 GVX      -0.054000
     16 C16         -2.0690    -7.0670    -0.2190 c          1 GVX       0.714000
     17 O17         -2.6930    -8.1190    -0.2080 o          1 GVX      -0.734000
     18 O18         -1.1130    -6.8600    -0.9550 o          1 GVX      -0.734000
     19 C19         -0.5000    -1.9130     0.4950 c3         1 GVX       0.065600
     20 S20          0.2790    -0.4820    -0.3870 ss         1 GVX      -0.265600
     21 C21          1.9350    -0.4370     0.2360 cs         1 GVX       0.385000
     22 S22          2.5710    -1.4920     1.3670 s          1 GVX      -0.597400
     23 N23          2.6110     0.5920    -0.3510 ns         1 GVX      -0.404900
     24 C24          4.0060     0.9540    -0.0970 c3         1 GVX       0.094000
     25 C25          4.4530     2.1610    -0.9420 c3         1 GVX      -0.052100
     26 C26          5.9050     2.5330    -0.6760 ca         1 GVX      -0.075300
     27 C27          6.9380     1.9500    -1.4360 ca         1 GVX      -0.101500
     28 C28          8.2800     2.2880    -1.1860 ca         1 GVX      -0.111000
     29 C29          8.5960     3.2100    -0.1740 ca         1 GVX      -0.114000
     30 C30          7.5700     3.7930     0.5880 ca         1 GVX      -0.111000
     31 C31          6.2290     3.4550     0.3390 ca         1 GVX      -0.101500
     32 H2          -4.2080     3.3140     1.9410 h1         1 GVX       0.029700
     33 H3          -5.5860     4.8390     0.7400 hn         1 GVX       0.379500
     34 H4          -4.8170     4.5770    -0.6480 hn         1 GVX       0.379500
     35 H6          -2.8510     2.8060    -0.7530 hc         1 GVX       0.053700
     36 H7          -2.2300     2.2760     0.8020 hc         1 GVX       0.053700
     37 H8          -4.3150     0.9300     1.1880 hc         1 GVX       0.053700
     38 H9          -4.8780     1.3890    -0.4520 hc         1 GVX       0.053700
     39 H10         -3.0940    -0.8110     1.3990 hn         1 GVX       0.312500
     40 H11         -2.0310    -2.2820    -0.9960 h1         1 GVX       0.083700
     41 H12         -1.5250    -4.5440    -0.5770 hn         1 GVX       0.341500
     42 H13         -2.1270    -6.0830     1.7120 h1         1 GVX       0.035700
     43 H14         -3.6480    -5.9630     0.7840 h1         1 GVX       0.035700
     44 H16         -0.4370    -1.7420     1.5770 h1         1 GVX       0.101200
     45 H17          0.0750    -2.8190     0.2620 h1         1 GVX       0.101200
     46 H18          2.0910     1.1470    -1.0210 hn         1 GVX       0.322500
     47 H19          4.1230     1.1890     0.9690 h1         1 GVX       0.070200
     48 H20          4.6440     0.0900    -0.3280 h1         1 GVX       0.070200
     49 H21          4.3120     1.9290    -2.0040 hc         1 GVX       0.055200
     50 H22          3.7990     3.0150    -0.7230 hc         1 GVX       0.055200
     51 H23          6.7030     1.2330    -2.2190 ha         1 GVX       0.114500
     52 H24          9.0740     1.8350    -1.7760 ha         1 GVX       0.109000
     53 H25          9.6340     3.4720     0.0190 ha         1 GVX       0.106000
     54 H26          7.8140     4.5060     1.3730 ha         1 GVX       0.109000
     55 H27          5.4400     3.9100     0.9350 ha         1 GVX       0.114500
@<TRIPOS>BOND
     1     1     2 1   
     2     2     3 1   
     3     2     4 1   
     4     4     5 1   
     5     4     6 1   
     6     4    32 1   
     7     5    33 1   
     8     5    34 1   
     9     6     7 1   
    10     6    35 1   
    11     6    36 1   
    12     7     8 1   
    13     7    37 1   
    14     7    38 1   
    15     8     9 2   
    16     8    10 1   
    17    10    11 1   
    18    10    39 1   
    19    11    12 1   
    20    11    19 1   
    21    11    40 1   
    22    12    13 2   
    23    12    14 1   
    24    14    15 1   
    25    14    41 1   
    26    15    16 1   
    27    15    42 1   
    28    15    43 1   
    29    16    17 1   
    30    16    18 1   
    31    19    20 1   
    32    19    44 1   
    33    19    45 1   
    34    20    21 1   
    35    21    22 2   
    36    21    23 1   
    37    23    24 1   
    38    23    46 1   
    39    24    25 1   
    40    24    47 1   
    41    24    48 1   
    42    25    26 1   
    43    25    49 1   
    44    25    50 1   
    45    26    27 ar  
    46    26    31 ar  
    47    27    28 ar  
    48    27    51 1   
    49    28    29 ar  
    50    28    52 1   
    51    29    30 ar  
    52    29    53 1   
    53    30    31 ar  
    54    30    54 1   
    55    31    55 1   
@<TRIPOS>SUBSTRUCTURE
     1 GVX         1 TEMP              0 ****  ****    0 ROOT
