@<TRIPOS>MOLECULE
GVY
   20    21     1     0     0
SMALL
bcc


@<TRIPOS>ATOM
      1 N1           1.4120     1.4030    -0.0580 nc         1 GVY      -0.304000
      2 N3           4.4840    -0.2590     0.0500 nv         1 GVY      -0.925500
      3 C4          -2.8510     1.0970     0.1160 ca         1 GVY      -0.200500
      4 C5          -1.4760     1.2280     0.0980 ca         1 GVY      -0.057500
      5 C6          -0.6470     0.1060     0.0440 ca         1 GVY      -0.175500
      6 C7           0.8010     0.2700     0.0160 cd         1 GVY       0.479900
      7 C8           3.1850     0.0930    -0.0060 cd         1 GVY       0.660300
      8 C1          -1.2450    -1.1550     0.0090 ca         1 GVY      -0.057500
      9 C2          -2.6200    -1.2970     0.0260 ca         1 GVY      -0.200500
     10 C3          -3.4360    -0.1690     0.0790 ca         1 GVY       0.156100
     11 N2           2.7560     1.3190    -0.0740 nc         1 GVY      -0.407000
     12 S1           1.9080    -1.0800     0.0860 ss         1 GVY      -0.340800
     13 O1          -4.7660    -0.3570     0.0910 oh         1 GVY      -0.490100
     14 H1           5.1460     0.4510    -0.2220 hn         1 GVY       0.428800
     15 H2           4.7470    -1.1940    -0.2120 hn         1 GVY       0.428800
     16 H4          -1.0410     2.2180     0.1300 ha         1 GVY       0.145500
     17 H5          -0.6390    -2.0530    -0.0390 ha         1 GVY       0.145500
     18 H6          -3.0640    -2.2840    -0.0030 ha         1 GVY       0.143000
     19 H7          -5.2290     0.4880     0.1220 ho         1 GVY       0.430000
     20 H3          -3.4720     1.9840     0.1610 ha         1 GVY       0.143000
@<TRIPOS>BOND
     1     1     6 2   
     2     1    11 1   
     3     2     7 1   
     4     2    14 1   
     5     2    15 1   
     6     3     4 ar  
     7     3    10 ar  
     8     3    20 1   
     9     4     5 ar  
    10     4    16 1   
    11     5     6 1   
    12     5     8 ar  
    13     6    12 1   
    14     7    11 2   
    15     7    12 1   
    16     8     9 ar  
    17     8    17 1   
    18     9    10 ar  
    19     9    18 1   
    20    10    13 1   
    21    13    19 1   
@<TRIPOS>SUBSTRUCTURE
     1 GVY         1 TEMP              0 ****  ****    0 ROOT
