@<TRIPOS>MOLECULE
GVY
   20    21     1     0     0
SMALL
No Charge or Current Charge


@<TRIPOS>ATOM
      1 N1           1.4320     1.4490     0.0560 nc         1 GVY      -0.304000
      2 N3           4.4750    -0.2520     0.0020 nv         1 GVY      -1.035900
      3 C4          -2.8730     1.0910     0.0860 ca         1 GVY      -0.182500
      4 C5          -1.4740     1.2350     0.0760 ca         1 GVY      -0.039500
      5 C6          -0.6310     0.0980     0.0510 ca         1 GVY      -0.175500
      6 C7           0.8450     0.2530     0.0410 cd         1 GVY       0.479900
      7 C8           3.1710     0.0710     0.0220 cd         1 GVY       0.660300
      8 C1          -1.2290    -1.1850     0.0370 ca         1 GVY      -0.039500
      9 C2          -2.6280    -1.3210     0.0470 ca         1 GVY      -0.182500
     10 C3          -3.4490    -0.1870     0.0710 ca         1 GVY       0.156100
     11 N2           2.8150     1.3360     0.0430 nc         1 GVY      -0.407000
     12 S1           1.9270    -1.1250     0.0080 ss         1 GVY      -0.340800
     13 O1          -4.8030    -0.3340     0.0800 oh         1 GVY      -0.529100
     14 H1           5.1180     0.4910    -0.2490 hn         1 GVY       0.484000
     15 H2           4.7210    -1.1880    -0.3020 hn         1 GVY       0.484000
     16 H4          -1.0540     2.2390     0.0880 ha         1 GVY       0.127500
     17 H5          -0.6220    -2.0870     0.0180 ha         1 GVY       0.127500
     18 H6          -3.0750    -2.3120     0.0350 ha         1 GVY       0.125000
     19 H7          -5.2110     0.5580     0.0980 ho         1 GVY       0.469000
     20 H3          -3.5010     1.9780     0.1050 ha         1 GVY       0.125000
@<TRIPOS>BOND
     1     1     6 2   
     2     1    11 1   
     3     2     7 1   
     4     2    14 1   
     5     2    15 1   
     6     3     4 ar  
     7     3    10 ar  
     8     3    20 1   
     9     4     5 ar  
    10     4    16 1   
    11     5     6 1   
    12     5     8 ar  
    13     6    12 1   
    14     7    11 2   
    15     7    12 1   
    16     8     9 ar  
    17     8    17 1   
    18     9    10 ar  
    19     9    18 1   
    20    10    13 1   
    21    13    19 1   
@<TRIPOS>SUBSTRUCTURE
     1 GVY         1 TEMP              0 ****  ****    0 ROOT
