@<TRIPOS>MOLECULE
GVZ
  102   105     1     0     0
SMALL
No Charge or Current Charge


@<TRIPOS>ATOM
      1 C4           5.8670     1.6380    -1.2180 c6         1 GVZ      -0.051700
      2 C5           4.7710     0.5550    -0.9050 c6         1 GVZ      -0.051700
      3 C6           4.4250    -0.2440    -2.2010 c6         1 GVZ      -0.078400
      4 C7           5.1890    -0.4170     0.2580 c3         1 GVZ      -0.086400
      5 C8           4.1970    -1.5610     0.6190 c3         1 GVZ       0.077700
      6 C24          0.3780    -0.8020     0.4710 c3         1 GVZ       0.025700
      7 C53          6.2260     2.5110     0.0260 c6         1 GVZ      -0.073400
      8 C52          7.2770     3.5990    -0.3070 c6         1 GVZ      -0.073400
      9 C51          6.8120     4.4950    -1.4760 c6         1 GVZ      -0.073400
     10 C50          6.4780     3.6420    -2.7200 c6         1 GVZ      -0.070400
     11 C3           5.4060     2.5660    -2.3940 c6         1 GVZ      -0.057700
     12 C2           5.0700     1.7370    -3.6600 c6         1 GVZ      -0.072400
     13 C1           3.9870     0.6820    -3.3570 c6         1 GVZ      -0.071400
     14 C9           4.5670    -2.4140     1.8950 c3         1 GVZ       0.174300
     15 O21          3.5250    -3.3920     2.0890 oh         1 GVZ      -0.652000
     16 N22          2.8380    -0.9940     0.7270 ns         1 GVZ      -0.509900
     17 C23          1.6720    -1.6570     0.4150 c          1 GVZ       0.588100
     18 O49          1.6840    -2.8490     0.1350 o          1 GVZ      -0.596100
     19 C40          0.0330    -0.3900     1.9280 c3         1 GVZ      -0.037100
     20 C41         -1.2750     0.3870     2.0400 ca         1 GVZ      -0.126300
     21 C42         -2.4570    -0.2620     2.4460 ca         1 GVZ      -0.062500
     22 C43         -3.6660     0.4520     2.5160 ca         1 GVZ      -0.168500
     23 C44         -3.7070     1.8150     2.1850 ca         1 GVZ       0.141100
     24 O45         -4.9230     2.4610     2.2670 os         1 GVZ      -0.345100
     25 C46         -5.0880     3.8390     1.8910 c3         1 GVZ       0.146900
     26 C47         -2.5230     2.4700     1.7840 ca         1 GVZ      -0.168500
     27 C48         -1.3140     1.7560     1.7130 ca         1 GVZ      -0.062500
     28 N25         -0.7490    -1.5300    -0.1580 ns         1 GVZ      -0.485900
     29 O39         -1.7200     0.2400    -1.2220 o          1 GVZ      -0.613100
     30 C27         -2.9010    -1.9000    -1.3290 c3         1 GVZ       0.037700
     31 C38         -2.4630    -2.8550    -2.4630 c3         1 GVZ      -0.107100
     32 N28         -4.0880    -1.1130    -1.7300 ns         1 GVZ      -0.505900
     33 C29         -5.3810    -1.5940    -1.7980 c          1 GVZ       0.600100
     34 O37         -5.6500    -2.7620    -1.5400 o          1 GVZ      -0.585100
     35 C30         -6.4550    -0.5430    -2.2100 c3         1 GVZ       0.091800
     36 N31         -7.4190    -0.0870    -1.1580 n3         1 GVZ      -0.696600
     37 C32         -6.7600     0.5130     0.0460 c6         1 GVZ       0.127300
     38 C33         -7.8100     0.9390     1.1160 c6         1 GVZ       0.153600
     39 O34         -8.7840     1.8390     0.5360 os         1 GVZ      -0.454000
     40 C35         -9.4850     1.2530    -0.5870 c6         1 GVZ       0.153600
     41 C36         -8.4750     0.8260    -1.6940 c6         1 GVZ       0.127300
     42 H1           6.7810     1.1140    -1.5340 hc         1 GVZ       0.046700
     43 H2           3.8650     1.0820    -0.5730 hc         1 GVZ       0.043700
     44 H3           5.2950    -0.8380    -2.5150 hc         1 GVZ       0.045200
     45 H4           3.6140    -0.9590    -2.0120 hc         1 GVZ       0.045200
     46 H5           6.1530    -0.8610    -0.0140 hc         1 GVZ       0.058200
     47 H6           5.3560     0.1520     1.1790 hc         1 GVZ       0.058200
     48 H7           4.1940    -2.2540    -0.2340 h1         1 GVZ       0.092700
     49 H8           0.5800     0.1070    -0.1110 h1         1 GVZ       0.087700
     50 H9           5.3170     2.9820     0.4240 hc         1 GVZ       0.037700
     51 H10          6.6370     1.8900     0.8320 hc         1 GVZ       0.037700
     52 H11          7.4680     4.2160     0.5820 hc         1 GVZ       0.038200
     53 H12          8.2320     3.1210    -0.5650 hc         1 GVZ       0.038200
     54 H13          5.9290     5.0740    -1.1720 hc         1 GVZ       0.038700
     55 H14          7.5960     5.2240    -1.7220 hc         1 GVZ       0.038700
     56 H15          6.1190     4.2970    -3.5250 hc         1 GVZ       0.038200
     57 H16          7.3930     3.1600    -3.0930 hc         1 GVZ       0.038200
     58 H17          4.4910     3.0890    -2.0810 hc         1 GVZ       0.045700
     59 H18          4.7190     2.4010    -4.4620 hc         1 GVZ       0.038200
     60 H19          5.9750     1.2410    -4.0370 hc         1 GVZ       0.038200
     61 H20          3.7870     0.0850    -4.2570 hc         1 GVZ       0.038700
     62 H21          3.0430     1.1800    -3.0960 hc         1 GVZ       0.038700
     63 H22          4.5580    -1.7230     2.7490 h1         1 GVZ       0.038700
     64 H23          2.8660    -3.2410     1.3640 ho         1 GVZ       0.448000
     65 H24          5.4490    -4.8230     3.2190 hc         1 GVZ       0.045367
     66 H25          7.1690    -4.4120     3.2520 hc         1 GVZ       0.045367
     67 H26          5.9950    -3.3760     4.0890 hc         1 GVZ       0.045367
     68 H27          6.2020    -3.4290    -0.2630 hc         1 GVZ       0.045367
     69 H28          7.1590    -4.5540     0.7120 hc         1 GVZ       0.045367
     70 H29          5.4080    -4.7810     0.5690 hc         1 GVZ       0.045367
     71 H30          7.8790    -2.6710     1.9910 ho         1 GVZ       0.448000
     72 H31          2.7510    -0.0140     0.9720 hn         1 GVZ       0.312500
     73 H32         -0.0140    -1.2950     2.5480 hc         1 GVZ       0.061200
     74 H33          0.8540     0.2100     2.3390 hc         1 GVZ       0.061200
     75 H34         -2.4430    -1.3200     2.6970 ha         1 GVZ       0.111500
     76 H35         -4.5760    -0.0550     2.8260 ha         1 GVZ       0.124000
     77 H36         -4.4650     4.4920     2.5140 h1         1 GVZ       0.042700
     78 H37         -4.8170     3.9900     0.8380 h1         1 GVZ       0.042700
     79 H38         -6.1340     4.1440     2.0190 h1         1 GVZ       0.042700
     80 H39         -2.5210     3.5230     1.5210 ha         1 GVZ       0.124000
     81 H40         -0.4070     2.2660     1.3930 ha         1 GVZ       0.111500
     82 H41         -0.8250    -2.5270     0.0090 hn         1 GVZ       0.333500
     83 H42         -3.1610    -2.4940    -0.4430 h1         1 GVZ       0.085700
     84 H43         -2.1910    -2.2900    -3.3630 hc         1 GVZ       0.050700
     85 H44         -1.5930    -3.4490    -2.1570 hc         1 GVZ       0.050700
     86 H45         -3.2690    -3.5500    -2.7250 hc         1 GVZ       0.050700
     87 H46         -3.9550    -0.1280    -1.9340 hn         1 GVZ       0.333500
     88 H47         -5.9240     0.3260    -2.6210 h1         1 GVZ       0.047200
     89 H48         -7.0090    -0.9890    -3.0470 h1         1 GVZ       0.047200
     90 H50         -6.0650    -0.2050     0.5050 h1         1 GVZ       0.042200
     91 H51         -6.1690     1.3960    -0.2400 h1         1 GVZ       0.042200
     92 H52         -8.3250     0.0500     1.5080 h1         1 GVZ       0.054700
     93 H53         -7.3120     1.4400     1.9570 h1         1 GVZ       0.054700
     94 H54        -10.0550     0.3770    -0.2430 h1         1 GVZ       0.054700
     95 H55        -10.1970     1.9860    -0.9920 h1         1 GVZ       0.054700
     96 H56         -8.0170     1.7320    -2.1190 h1         1 GVZ       0.042200
     97 H57         -9.0300     0.3340    -2.5070 h1         1 GVZ       0.042200
     98 C10          5.9800    -3.1390     1.9070 c3         1 GVZ       0.194000
     99 C11          6.1590    -3.9870     3.1930 c3         1 GVZ      -0.116100
    100 C12          6.1990    -4.0270     0.6560 c3         1 GVZ      -0.116100
    101 O13          7.0360    -2.1720     1.9350 oh         1 GVZ      -0.671000
    102 C26         -1.7470    -0.9450    -0.9120 c          1 GVZ       0.596100
@<TRIPOS>BOND
     1     1     2 1   
     2     1     7 1   
     3     1    11 1   
     4     1    42 1   
     5     2     3 1   
     6     2     4 1   
     7     2    43 1   
     8     3    13 1   
     9     3    44 1   
    10     3    45 1   
    11     4     5 1   
    12     4    46 1   
    13     4    47 1   
    14     5    14 1   
    15     5    16 1   
    16     5    48 1   
    17     6    17 1   
    18     6    19 1   
    19     6    28 1   
    20     6    49 1   
    21     7     8 1   
    22     7    50 1   
    23     7    51 1   
    24     8     9 1   
    25     8    52 1   
    26     8    53 1   
    27     9    10 1   
    28     9    54 1   
    29     9    55 1   
    30    10    11 1   
    31    10    56 1   
    32    10    57 1   
    33    11    12 1   
    34    11    58 1   
    35    12    13 1   
    36    12    59 1   
    37    12    60 1   
    38    13    61 1   
    39    13    62 1   
    40    14    15 1   
    41    14    63 1   
    42    14    98 1   
    43    15    64 1   
    44    16    17 1   
    45    16    72 1   
    46    17    18 2   
    47    19    20 1   
    48    19    73 1   
    49    19    74 1   
    50    20    21 ar  
    51    20    27 ar  
    52    21    22 ar  
    53    21    75 1   
    54    22    23 ar  
    55    22    76 1   
    56    23    24 1   
    57    23    26 ar  
    58    24    25 1   
    59    25    77 1   
    60    25    78 1   
    61    25    79 1   
    62    26    27 ar  
    63    26    80 1   
    64    27    81 1   
    65    28    82 1   
    66    28   102 1   
    67    29   102 2   
    68    30    31 1   
    69    30    32 1   
    70    30    83 1   
    71    30   102 1   
    72    31    84 1   
    73    31    85 1   
    74    31    86 1   
    75    32    33 1   
    76    32    87 1   
    77    33    34 2   
    78    33    35 1   
    79    35    36 1   
    80    35    88 1   
    81    35    89 1   
    82    36    37 1   
    83    36    41 1   
    84    37    38 1   
    85    37    90 1   
    86    37    91 1   
    87    38    39 1   
    88    38    92 1   
    89    38    93 1   
    90    39    40 1   
    91    40    41 1   
    92    40    94 1   
    93    40    95 1   
    94    41    96 1   
    95    41    97 1   
    96    65    99 1   
    97    66    99 1   
    98    67    99 1   
    99    68   100 1   
   100    69   100 1   
   101    70   100 1   
   102    71   101 1   
   103    98    99 1   
   104    98   100 1   
   105    98   101 1   
@<TRIPOS>SUBSTRUCTURE
     1 GVZ         1 TEMP              0 ****  ****    0 ROOT
