@<TRIPOS>MOLECULE
GVZ
  102   105     1     0     0
SMALL
bcc


@<TRIPOS>ATOM
      1 C4           5.0590     1.0090    -1.9050 c6         1 GVZ      -0.051700
      2 C5           4.2690    -0.0370    -1.0950 c6         1 GVZ      -0.051700
      3 C6           4.0420    -1.2970    -1.9340 c6         1 GVZ      -0.078400
      4 C7           4.9720    -0.3700     0.2260 c3         1 GVZ      -0.086400
      5 C8           4.2430    -1.3760     1.1180 c3         1 GVZ       0.077700
      6 C24          0.4610    -0.8750     1.2770 c3         1 GVZ       0.025700
      7 C53          5.2950     2.3120    -1.1340 c6         1 GVZ      -0.073400
      8 C52          6.0610     3.3450    -1.9540 c6         1 GVZ      -0.073400
      9 C51          5.3710     3.6350    -3.2790 c6         1 GVZ      -0.073400
     10 C50          5.1430     2.3440    -4.0540 c6         1 GVZ      -0.070400
     11 C3           4.3620     1.3140    -3.2410 c6         1 GVZ      -0.057700
     12 C2           4.1280     0.0430    -4.0510 c6         1 GVZ      -0.072400
     13 C1           3.3510    -0.9930    -3.2560 c6         1 GVZ      -0.071400
     14 C9           4.9100    -1.6010     2.4980 c3         1 GVZ       0.151100
     15 O21          4.0610    -2.3730     3.3130 oh         1 GVZ      -0.589800
     16 N22          2.8810    -0.9140     1.3410 ns         1 GVZ      -0.576900
     17 C23          1.7750    -1.6100     1.0360 c          1 GVZ       0.655100
     18 O49          1.7700    -2.7560     0.6140 o          1 GVZ      -0.596100
     19 C40         -0.2670    -1.4810     2.4900 c3         1 GVZ      -0.037100
     20 C41         -1.6290    -0.8770     2.6700 ca         1 GVZ      -0.126300
     21 C42         -2.7640    -1.5190     2.1770 ca         1 GVZ      -0.080500
     22 C43         -4.0190    -0.9480     2.2830 ca         1 GVZ      -0.186500
     23 C44         -4.1720     0.2990     2.8900 ca         1 GVZ       0.141100
     24 O45         -5.4280     0.7830     2.9550 os         1 GVZ      -0.321900
     25 C46         -5.6280     2.0750     3.4900 c3         1 GVZ       0.123700
     26 C47         -3.0490     0.9540     3.3890 ca         1 GVZ      -0.186500
     27 C48         -1.7970     0.3620     3.2720 ca         1 GVZ      -0.080500
     28 N25         -0.3440    -0.9770     0.0860 ns         1 GVZ      -0.552900
     29 O39         -0.7910     1.2310    -0.1530 o          1 GVZ      -0.613100
     30 C27         -1.7990    -0.2910    -1.7090 c3         1 GVZ       0.037700
     31 C38         -0.9250    -0.3440    -2.9640 c3         1 GVZ      -0.107100
     32 N28         -2.8550     0.6830    -1.8150 ns         1 GVZ      -0.572900
     33 C29         -4.1000     0.3900    -2.2190 c          1 GVZ       0.667100
     34 O37         -4.4540    -0.7300    -2.5550 o          1 GVZ      -0.585100
     35 C30         -5.0480     1.5800    -2.2520 c3         1 GVZ       0.091800
     36 N31         -6.3470     1.2260    -1.7430 n3         1 GVZ      -0.696600
     37 C32         -6.3220     0.9780    -0.3120 c6         1 GVZ       0.127300
     38 C33         -7.7020     0.5680     0.1640 c6         1 GVZ       0.130400
     39 O34         -8.6720     1.5420    -0.1530 os         1 GVZ      -0.407600
     40 C35         -8.7000     1.7890    -1.5410 c6         1 GVZ       0.130400
     41 C36         -7.3440     2.2330    -2.0560 c6         1 GVZ       0.127300
     42 H1           6.0440     0.5720    -2.1380 hc         1 GVZ       0.046700
     43 H2           3.2870     0.4040    -0.8740 hc         1 GVZ       0.043700
     44 H3           5.0120    -1.7710    -2.1310 hc         1 GVZ       0.045200
     45 H4           3.4490    -2.0260    -1.3790 hc         1 GVZ       0.045200
     46 H5           5.9700    -0.7500     0.0050 hc         1 GVZ       0.058200
     47 H6           5.1210     0.5420     0.8110 hc         1 GVZ       0.058200
     48 H7           4.1580    -2.3400     0.6170 h1         1 GVZ       0.092700
     49 H8           0.6350     0.1850     1.4630 h1         1 GVZ       0.087700
     50 H9           4.3250     2.7280    -0.8350 hc         1 GVZ       0.037700
     51 H10          5.8450     2.1200    -0.2110 hc         1 GVZ       0.037700
     52 H11          6.1810     4.2640    -1.3750 hc         1 GVZ       0.038200
     53 H12          7.0720     2.9680    -2.1490 hc         1 GVZ       0.038200
     54 H13          4.4080     4.1210    -3.0900 hc         1 GVZ       0.038700
     55 H14          5.9640     4.3360    -3.8730 hc         1 GVZ       0.038700
     56 H15          4.6120     2.5510    -4.9890 hc         1 GVZ       0.038200
     57 H16          6.1110     1.9130    -4.3380 hc         1 GVZ       0.038200
     58 H17          3.3790     1.7490    -3.0050 hc         1 GVZ       0.045700
     59 H18          3.6030     0.2900    -4.9790 hc         1 GVZ       0.038200
     60 H19          5.0980    -0.3760    -4.3470 hc         1 GVZ       0.038200
     61 H20          3.2290    -1.9100    -3.8370 hc         1 GVZ       0.038700
     62 H21          2.3420    -0.6160    -3.0550 hc         1 GVZ       0.038700
     63 H22          5.0830    -0.6110     2.9530 h1         1 GVZ       0.038700
     64 H23          3.2330    -1.8930     3.4140 ho         1 GVZ       0.409000
     65 H24          6.0910    -3.4510     4.3490 hc         1 GVZ       0.045367
     66 H25          7.7350    -3.0220     3.9030 hc         1 GVZ       0.045367
     67 H26          6.6520    -1.7880     4.5540 hc         1 GVZ       0.045367
     68 H27          6.0630    -3.3960     0.5810 hc         1 GVZ       0.045367
     69 H28          7.1780    -4.1420     1.7200 hc         1 GVZ       0.045367
     70 H29          5.4460    -4.2780     1.9810 hc         1 GVZ       0.045367
     71 H30          8.0500    -1.8390     1.8610 ho         1 GVZ       0.409000
     72 H31          2.7670     0.0520     1.6130 hn         1 GVZ       0.312500
     73 H32         -0.3530    -2.5610     2.3490 hc         1 GVZ       0.061200
     74 H33          0.3530    -1.3250     3.3760 hc         1 GVZ       0.061200
     75 H34         -2.6700    -2.4890     1.7030 ha         1 GVZ       0.129500
     76 H35         -4.8900    -1.4640     1.8970 ha         1 GVZ       0.142000
     77 H36         -5.3460     2.1310     4.5450 h1         1 GVZ       0.042700
     78 H37         -5.0730     2.8370     2.9380 h1         1 GVZ       0.042700
     79 H38         -6.6910     2.2850     3.4030 h1         1 GVZ       0.042700
     80 H39         -3.1270     1.9190     3.8730 ha         1 GVZ       0.142000
     81 H40         -0.9350     0.8890     3.6650 ha         1 GVZ       0.129500
     82 H41         -0.5730    -1.9070    -0.2330 hn         1 GVZ       0.333500
     83 H42         -2.2550    -1.2700    -1.5530 h1         1 GVZ       0.085700
     84 H43         -0.4590     0.6230    -3.1550 hc         1 GVZ       0.050700
     85 H44         -0.1390    -1.0920    -2.8600 hc         1 GVZ       0.050700
     86 H45         -1.5300    -0.6110    -3.8290 hc         1 GVZ       0.050700
     87 H46         -2.6380     1.6260    -1.5300 hn         1 GVZ       0.333500
     88 H47         -4.6090     2.4430    -1.7240 h1         1 GVZ       0.047200
     89 H48         -5.1490     1.8790    -3.3000 h1         1 GVZ       0.047200
     90 H50         -5.6220     0.1720    -0.0830 h1         1 GVZ       0.042200
     91 H51         -5.9820     1.8670     0.2460 h1         1 GVZ       0.042200
     92 H52         -7.9670    -0.3980    -0.2880 h1         1 GVZ       0.054700
     93 H53         -7.6980     0.4440     1.2480 h1         1 GVZ       0.054700
     94 H54         -9.0170     0.8890    -2.0860 h1         1 GVZ       0.054700
     95 H55         -9.4430     2.5690    -1.7200 h1         1 GVZ       0.054700
     96 H56         -7.0880     3.2150    -1.6220 h1         1 GVZ       0.042200
     97 H57         -7.4010     2.3640    -3.1390 h1         1 GVZ       0.042200
     98 C10          6.2720    -2.3270     2.4770 c3         1 GVZ       0.170800
     99 C11          6.7020    -2.6660     3.9080 c3         1 GVZ      -0.116100
    100 C12          6.2310    -3.6030     1.6390 c3         1 GVZ      -0.116100
    101 O13          7.1970    -1.3990     1.9320 oh         1 GVZ      -0.608800
    102 C26         -0.9420     0.0710    -0.5010 c          1 GVZ       0.663100
@<TRIPOS>BOND
     1     1     2 1   
     2     1     7 1   
     3     1    11 1   
     4     1    42 1   
     5     2     3 1   
     6     2     4 1   
     7     2    43 1   
     8     3    13 1   
     9     3    44 1   
    10     3    45 1   
    11     4     5 1   
    12     4    46 1   
    13     4    47 1   
    14     5    14 1   
    15     5    16 1   
    16     5    48 1   
    17     6    17 1   
    18     6    19 1   
    19     6    28 1   
    20     6    49 1   
    21     7     8 1   
    22     7    50 1   
    23     7    51 1   
    24     8     9 1   
    25     8    52 1   
    26     8    53 1   
    27     9    10 1   
    28     9    54 1   
    29     9    55 1   
    30    10    11 1   
    31    10    56 1   
    32    10    57 1   
    33    11    12 1   
    34    11    58 1   
    35    12    13 1   
    36    12    59 1   
    37    12    60 1   
    38    13    61 1   
    39    13    62 1   
    40    14    15 1   
    41    14    63 1   
    42    14    98 1   
    43    15    64 1   
    44    16    17 1   
    45    16    72 1   
    46    17    18 2   
    47    19    20 1   
    48    19    73 1   
    49    19    74 1   
    50    20    21 ar  
    51    20    27 ar  
    52    21    22 ar  
    53    21    75 1   
    54    22    23 ar  
    55    22    76 1   
    56    23    24 1   
    57    23    26 ar  
    58    24    25 1   
    59    25    77 1   
    60    25    78 1   
    61    25    79 1   
    62    26    27 ar  
    63    26    80 1   
    64    27    81 1   
    65    28    82 1   
    66    28   102 1   
    67    29   102 2   
    68    30    31 1   
    69    30    32 1   
    70    30    83 1   
    71    30   102 1   
    72    31    84 1   
    73    31    85 1   
    74    31    86 1   
    75    32    33 1   
    76    32    87 1   
    77    33    34 2   
    78    33    35 1   
    79    35    36 1   
    80    35    88 1   
    81    35    89 1   
    82    36    37 1   
    83    36    41 1   
    84    37    38 1   
    85    37    90 1   
    86    37    91 1   
    87    38    39 1   
    88    38    92 1   
    89    38    93 1   
    90    39    40 1   
    91    40    41 1   
    92    40    94 1   
    93    40    95 1   
    94    41    96 1   
    95    41    97 1   
    96    65    99 1   
    97    66    99 1   
    98    67    99 1   
    99    68   100 1   
   100    69   100 1   
   101    70   100 1   
   102    71   101 1   
   103    98    99 1   
   104    98   100 1   
   105    98   101 1   
@<TRIPOS>SUBSTRUCTURE
     1 GVZ         1 TEMP              0 ****  ****    0 ROOT
