@<TRIPOS>MOLECULE
GW0
   47    49     1     0     0
SMALL
No Charge or Current Charge


@<TRIPOS>ATOM
      1 CAA          6.9570     0.4000     2.7740 c3         1 GW0      -0.031800
      2 OAC         10.5500    -1.4730    -1.9720 o          1 GW0      -0.711000
      3 OAD         10.5520    -0.8930     0.1010 o          1 GW0      -0.711000
      4 CAI          4.2170    -0.1170    -0.5580 ca         1 GW0      -0.084000
      5 CAJ         -5.1620     1.4570    -0.2760 ca         1 GW0      -0.101000
      6 CAK          5.5860    -0.3740    -0.7330 ca         1 GW0      -0.208000
      7 CAL         -6.5340     1.1700    -0.1720 ca         1 GW0      -0.041000
      8 CAM          4.6290     0.4700     1.7630 ca         1 GW0      -0.067000
      9 CAN         -4.6540    -0.9110    -0.1880 ca         1 GW0      -0.158000
     10 CAO          8.4310    -0.8930    -1.0460 c3         1 GW0      -0.002400
     11 CAP          1.1460     0.4610    -0.6350 c3         1 GW0       0.123900
     12 NAQ         -2.3030     1.9890    -0.4880 nc         1 GW0      -0.638000
     13 OAR          7.8440    -0.4540     0.2030 os         1 GW0      -0.288100
     14 SAS          1.9940     0.6570     0.9950 ss         1 GW0      -0.199000
     15 SAT         -1.5090    -0.5150    -0.4150 ss         1 GW0       0.020600
     16 CAU          9.9720    -1.1020    -0.9590 c          1 GW0       0.729000
     17 CAV          6.0050     0.2150     1.5970 ca         1 GW0      -0.110300
     18 CAW         -0.9350     2.0000    -0.5770 cc         1 GW0       0.305300
     19 CAX          3.7310     0.3090     0.6940 ca         1 GW0      -0.159000
     20 CAY         -6.0240    -1.1970    -0.0840 ca         1 GW0       0.224000
     21 CAZ         -4.1970     0.4240    -0.2860 ca         1 GW0      -0.055500
     22 CBA          6.4890    -0.2100     0.3410 ca         1 GW0       0.175100
     23 CBB         -0.3260     0.7690    -0.5590 cd         1 GW0      -0.208300
     24 CBC         -6.9830    -0.1650    -0.0750 ca         1 GW0      -0.248300
     25 CBD         -2.7490     0.7400    -0.3960 cd         1 GW0       0.447900
     26 CBE         -8.4740    -0.4990     0.0390 c3         1 GW0       0.369300
     27 HAA          7.4680    -0.5400     3.0170 hc         1 GW0       0.043700
     28 HAAA         7.7240     1.1490     2.5450 hc         1 GW0       0.043700
     29 HAAB         6.4320     0.7320     3.6780 hc         1 GW0       0.043700
     30 HAB         -0.9380     4.1620    -0.6190 hc         1 GW0       0.054033
     31 HABA         0.5020     3.4390     0.1190 hc         1 GW0       0.054033
     32 HABB         0.2940     3.4030    -1.6430 hc         1 GW0       0.054033
     33 HAI          3.5520    -0.2560    -1.4050 ha         1 GW0       0.093000
     34 HAJ         -4.8520     2.4980    -0.3490 ha         1 GW0       0.150000
     35 HAK          5.9300    -0.7010    -1.7100 ha         1 GW0       0.124000
     36 HAL         -7.2390     1.9990    -0.1690 ha         1 GW0       0.134000
     37 HAM          4.2530     0.7980     2.7300 ha         1 GW0       0.108000
     38 HAN         -3.9580    -1.7440    -0.1910 ha         1 GW0       0.143000
     39 HAO          7.9850    -1.8460    -1.3590 h1         1 GW0       0.018200
     40 HAOA         8.2420    -0.1510    -1.8330 h1         1 GW0       0.018200
     41 HAP          1.6200     1.1310    -1.3630 h1         1 GW0       0.077700
     42 HAPA         1.2830    -0.5720    -0.9820 h1         1 GW0       0.077700
     43 FAF         -9.2640     0.5990     0.0340 f          1 GW0      -0.110333
     44 FAG         -8.7490    -1.1660     1.1830 f          1 GW0      -0.110333
     45 FAH         -8.8900    -1.2770    -0.9850 f          1 GW0      -0.110333
     46 CAB         -0.2340     3.3240    -0.6860 c3         1 GW0      -0.121400
     47 FAE         -6.4100    -2.4900     0.0070 f          1 GW0      -0.162000
@<TRIPOS>BOND
     1     1    17 1   
     2     1    27 1   
     3     1    28 1   
     4     1    29 1   
     5     2    16 1   
     6     3    16 1   
     7     4     6 ar  
     8     4    19 ar  
     9     4    33 1   
    10     5     7 ar  
    11     5    21 ar  
    12     5    34 1   
    13     6    22 ar  
    14     6    35 1   
    15     7    24 ar  
    16     7    36 1   
    17     8    17 ar  
    18     8    19 ar  
    19     8    37 1   
    20     9    20 ar  
    21     9    21 ar  
    22     9    38 1   
    23    10    13 1   
    24    10    16 1   
    25    10    39 1   
    26    10    40 1   
    27    11    14 1   
    28    11    23 1   
    29    11    41 1   
    30    11    42 1   
    31    12    18 1   
    32    12    25 2   
    33    13    22 1   
    34    14    19 1   
    35    15    23 1   
    36    15    25 1   
    37    17    22 ar  
    38    18    23 2   
    39    18    46 1   
    40    20    24 ar  
    41    20    47 1   
    42    21    25 1   
    43    24    26 1   
    44    26    43 1   
    45    26    44 1   
    46    26    45 1   
    47    30    46 1   
    48    31    46 1   
    49    32    46 1   
@<TRIPOS>SUBSTRUCTURE
     1 GW0         1 TEMP              0 ****  ****    0 ROOT
