@<TRIPOS>MOLECULE
GW0
   47    49     1     0     0
SMALL
bcc


@<TRIPOS>ATOM
      1 CAA          6.7460     0.2500     2.7790 c3         1 GW0      -0.031800
      2 OAC         10.4150    -1.1820    -1.8480 o          1 GW0      -0.816300
      3 OAD         10.3270    -0.7690     0.3470 o          1 GW0      -0.816300
      4 CAI          4.1630    -0.1170    -0.6330 ca         1 GW0      -0.102000
      5 CAJ         -5.0380     1.4420    -0.3360 ca         1 GW0      -0.119000
      6 CAK          5.5310    -0.3490    -0.7620 ca         1 GW0      -0.226000
      7 CAL         -6.3870     1.1660    -0.2080 ca         1 GW0      -0.059000
      8 CAM          4.4850     0.3500     1.6930 ca         1 GW0      -0.085000
      9 CAN         -4.5330    -0.8930    -0.0540 ca         1 GW0      -0.176000
     10 CAO          8.3100    -0.7590    -0.9370 c3         1 GW0      -0.025600
     11 CAP          1.1810     0.4210    -0.7740 c3         1 GW0       0.076000
     12 NAQ         -2.2230     1.9370    -0.5440 nc         1 GW0      -0.638000
     13 OAR          7.7050    -0.4370     0.2980 os         1 GW0      -0.264900
     14 SAS          1.9150     0.5610     0.8850 ss         1 GW0      -0.278000
     15 SAT         -1.4510    -0.4830    -0.4470 ss         1 GW0      -0.124300
     16 CAU          9.8310    -0.9150    -0.7790 c          1 GW0       0.939600
     17 CAV          5.8450     0.1200     1.5880 ca         1 GW0      -0.110300
     18 CAW         -0.8690     1.9690    -0.6820 cc         1 GW0       0.370600
     19 CAX          3.6270     0.2360     0.5950 ca         1 GW0      -0.032100
     20 CAY         -5.8800    -1.1410     0.0710 ca         1 GW0       0.188900
     21 CAZ         -4.0980     0.4150    -0.2620 ca         1 GW0      -0.055500
     22 CBA          6.3770    -0.2340     0.3340 ca         1 GW0       0.175100
     23 CBB         -0.2660     0.7410    -0.6680 cd         1 GW0      -0.128700
     24 CBC         -6.8330    -0.1350    -0.0040 ca         1 GW0      -0.248300
     25 CBD         -2.6780     0.7300    -0.4100 cd         1 GW0       0.447900
     26 CBE         -8.2880    -0.4570     0.1370 c3         1 GW0       0.733200
     27 HAA          7.2430    -0.6930     3.0110 hc         1 GW0       0.043700
     28 HAAA         7.5320     0.9880     2.6100 hc         1 GW0       0.043700
     29 HAAB         6.1830     0.5560     3.6590 hc         1 GW0       0.043700
     30 HAB         -0.2980     3.8800     0.0780 hc         1 GW0       0.054033
     31 HABA         0.8920     3.1590    -0.9980 hc         1 GW0       0.054033
     32 HABB        -0.5930     3.8480    -1.6550 hc         1 GW0       0.054033
     33 HAI          3.5440    -0.2220    -1.5130 ha         1 GW0       0.111000
     34 HAJ         -4.7130     2.4590    -0.4980 ha         1 GW0       0.168000
     35 HAK          5.9100    -0.6210    -1.7370 ha         1 GW0       0.142000
     36 HAL         -7.0930     1.9820    -0.2720 ha         1 GW0       0.152000
     37 HAM          4.0830     0.6310     2.6610 ha         1 GW0       0.126000
     38 HAN         -3.8440    -1.7260     0.0160 ha         1 GW0       0.161000
     39 HAO          7.8990    -1.6940    -1.3380 h1         1 GW0       0.018200
     40 HAOA         8.1080     0.0210    -1.6820 h1         1 GW0       0.018200
     41 HAP          1.6690     1.1230    -1.4510 h1         1 GW0       0.077700
     42 HAPA         1.3390    -0.5850    -1.1630 h1         1 GW0       0.077700
     43 FAF         -9.0510     0.6310     0.0190 f          1 GW0      -0.231633
     44 FAG         -8.5660    -1.0040     1.3270 f          1 GW0      -0.231633
     45 FAH         -8.6990    -1.3270    -0.7950 f          1 GW0      -0.231633
     46 CAB         -0.1750     3.2790    -0.8240 c3         1 GW0      -0.121400
     47 FAE         -6.2780    -2.4010     0.2720 f          1 GW0      -0.126900
@<TRIPOS>BOND
     1     1    17 1   
     2     1    27 1   
     3     1    28 1   
     4     1    29 1   
     5     2    16 1   
     6     3    16 1   
     7     4     6 ar  
     8     4    19 ar  
     9     4    33 1   
    10     5     7 ar  
    11     5    21 ar  
    12     5    34 1   
    13     6    22 ar  
    14     6    35 1   
    15     7    24 ar  
    16     7    36 1   
    17     8    17 ar  
    18     8    19 ar  
    19     8    37 1   
    20     9    20 ar  
    21     9    21 ar  
    22     9    38 1   
    23    10    13 1   
    24    10    16 1   
    25    10    39 1   
    26    10    40 1   
    27    11    14 1   
    28    11    23 1   
    29    11    41 1   
    30    11    42 1   
    31    12    18 1   
    32    12    25 2   
    33    13    22 1   
    34    14    19 1   
    35    15    23 1   
    36    15    25 1   
    37    17    22 ar  
    38    18    23 2   
    39    18    46 1   
    40    20    24 ar  
    41    20    47 1   
    42    21    25 1   
    43    24    26 1   
    44    26    43 1   
    45    26    44 1   
    46    26    45 1   
    47    30    46 1   
    48    31    46 1   
    49    32    46 1   
@<TRIPOS>SUBSTRUCTURE
     1 GW0         1 TEMP              0 ****  ****    0 ROOT
