@<TRIPOS>MOLECULE
GW2
  102   105     1     0     0
SMALL
No Charge or Current Charge


@<TRIPOS>ATOM
      1 C4           6.2070     1.8640    -0.6210 c6         1 GW2      -0.053700
      2 C5           5.0310     0.8230    -0.7050 c6         1 GW2      -0.049700
      3 C6           4.8400     0.3490    -2.1800 c6         1 GW2      -0.076400
      4 C7           5.2370    -0.4030     0.2560 c3         1 GW2      -0.088400
      5 C8           4.1570    -1.5220     0.2140 c3         1 GW2       0.079700
      6 C10          5.7740    -3.3530     1.2570 c3         1 GW2      -0.053700
      7 C24          0.3920    -0.5490    -0.0070 c3         1 GW2       0.024700
      8 C53          6.4190     2.4210     0.8220 c6         1 GW2      -0.072400
      9 C52          7.5530     3.4740     0.8820 c6         1 GW2      -0.073400
     10 C51          7.3020     4.6310    -0.1090 c6         1 GW2      -0.073400
     11 C50          7.1150     4.0920    -1.5450 c6         1 GW2      -0.071400
     12 C3           5.9620     3.0540    -1.6110 c6         1 GW2      -0.057700
     13 C2           5.7780     2.5430    -3.0630 c6         1 GW2      -0.072400
     14 C1           4.6170     1.5320    -3.1480 c6         1 GW2      -0.072400
     15 C9           4.3740    -2.6560     1.2780 c3         1 GW2       0.160300
     16 O21          3.3510    -3.6520     1.1310 oh         1 GW2      -0.650000
     17 C11          6.1220    -3.9960    -0.1160 c3         1 GW2      -0.083100
     18 C12          5.9050    -4.3700     2.4230 c3         1 GW2       0.165600
     19 O13          7.2680    -4.7880     2.5840 oh         1 GW2      -0.665000
     20 N22          2.8210    -0.9110     0.3390 ns         1 GW2      -0.508900
     21 C23          1.6550    -1.4370    -0.1700 c          1 GW2       0.594100
     22 O49          1.6390    -2.5410    -0.7010 o          1 GW2      -0.591100
     23 C40         -0.0360    -0.4420     1.4840 c3         1 GW2      -0.039100
     24 C41         -1.2650     0.4370     1.7000 ca         1 GW2      -0.123300
     25 C48         -1.1210     1.8320     1.8170 ca         1 GW2      -0.059500
     26 C47         -2.2540     2.6480     1.9820 ca         1 GW2      -0.170500
     27 C44         -3.5380     2.0840     2.0230 ca         1 GW2       0.144100
     28 O45         -4.6110     2.9390     2.1740 os         1 GW2      -0.340100
     29 C46         -5.9730     2.4770     2.1390 c3         1 GW2       0.148900
     30 C43         -3.6870     0.6840     1.9110 ca         1 GW2      -0.170500
     31 C42         -2.5520    -0.1330     1.7560 ca         1 GW2      -0.059500
     32 N25         -0.7160    -1.0700    -0.8410 ns         1 GW2      -0.482900
     33 O39         -1.6260     0.9300    -1.4590 o          1 GW2      -0.604100
     34 C27         -2.8770    -1.0860    -2.0490 c3         1 GW2       0.042700
     35 C38         -2.5990    -1.4770    -3.5170 c3         1 GW2      -0.106100
     36 N28         -4.1140    -0.2850    -1.9400 ns         1 GW2      -0.510900
     37 C29         -5.3960    -0.7970    -1.9420 c          1 GW2       0.597100
     38 O37         -5.6100    -1.9920    -2.1160 o          1 GW2      -0.581100
     39 C30         -6.5170     0.2590    -1.6870 c3         1 GW2       0.087800
     40 N31         -7.7800    -0.1800    -1.0070 n3         1 GW2      -0.692600
     41 C36         -8.7960     0.9140    -0.9170 c6         1 GW2       0.127300
     42 C35        -10.1070     0.4310    -0.2270 c6         1 GW2       0.153600
     43 O34         -9.8110    -0.1350     1.0730 os         1 GW2      -0.452000
     44 C33         -8.8910    -1.2500     0.9980 c6         1 GW2       0.153600
     45 C32         -7.5530    -0.8050     0.3360 c6         1 GW2       0.127300
     46 H1           7.1340     1.3550    -0.9230 hc         1 GW2       0.046700
     47 H2           4.1100     1.3290    -0.3850 hc         1 GW2       0.047700
     48 H3           5.7170    -0.2300    -2.5020 hc         1 GW2       0.044700
     49 H4           3.9770    -0.3230    -2.2620 hc         1 GW2       0.044700
     50 H5           6.2150    -0.8470     0.0370 hc         1 GW2       0.047700
     51 H6           5.2830    -0.0560     1.2940 hc         1 GW2       0.047700
     52 H7           4.2130    -1.9940    -0.7770 h1         1 GW2       0.101700
     53 H8           6.5240    -2.5790     1.4530 hc         1 GW2       0.059700
     54 H9           0.6660     0.4520    -0.3670 h1         1 GW2       0.091700
     55 H10          5.4820     2.8620     1.1910 hc         1 GW2       0.034700
     56 H11          6.6810     1.6130     1.5170 hc         1 GW2       0.034700
     57 H12          7.6390     3.8700     1.9030 hc         1 GW2       0.038200
     58 H13          8.5140     2.9930     0.6520 hc         1 GW2       0.038200
     59 H14          6.4100     5.1960     0.1960 hc         1 GW2       0.039200
     60 H15          8.1440     5.3360    -0.0810 hc         1 GW2       0.039200
     61 H16          6.9060     4.9300    -2.2240 hc         1 GW2       0.039200
     62 H17          8.0530     3.6360    -1.8920 hc         1 GW2       0.039200
     63 H18          5.0340     3.5640    -1.3140 hc         1 GW2       0.045700
     64 H19          5.5780     3.3870    -3.7370 hc         1 GW2       0.039200
     65 H20          6.7060     2.0730    -3.4180 hc         1 GW2       0.039200
     66 H21          4.5240     1.1580    -4.1770 hc         1 GW2       0.041700
     67 H22          3.6690     2.0330    -2.9100 hc         1 GW2       0.041700
     68 H23          4.2650    -2.1860     2.2640 h1         1 GW2       0.019700
     69 H24          2.7230    -3.3040     0.4490 ho         1 GW2       0.438000
     70 H25          5.4030    -4.7830    -0.3760 hc         1 GW2       0.043033
     71 H26          6.1200    -3.2490    -0.9180 hc         1 GW2       0.043033
     72 H27          7.1210    -4.4460    -0.0950 hc         1 GW2       0.043033
     73 H28          5.5520    -3.8980     3.3500 h1         1 GW2       0.023700
     74 H29          5.2610    -5.2390     2.2270 h1         1 GW2       0.023700
     75 H30          7.2830    -5.4340     3.3250 ho         1 GW2       0.444000
     76 H31          2.7540    -0.0020     0.7820 hn         1 GW2       0.309500
     77 H32         -0.2250    -1.4510     1.8710 hc         1 GW2       0.052700
     78 H33          0.8020    -0.0490     2.0740 hc         1 GW2       0.052700
     79 H34         -0.1340     2.2860     1.7720 ha         1 GW2       0.110500
     80 H35         -2.1360     3.7250     2.0680 ha         1 GW2       0.122000
     81 H36         -6.1600     1.7450     2.9350 h1         1 GW2       0.040367
     82 H37         -6.6630     3.3180     2.2820 h1         1 GW2       0.040367
     83 H38         -6.1990     2.0140     1.1700 h1         1 GW2       0.040367
     84 H39         -4.6650     0.2160     1.9430 ha         1 GW2       0.122000
     85 H40         -2.6770    -1.2100     1.6650 ha         1 GW2       0.110500
     86 H41         -0.8210    -2.0760    -0.9180 hn         1 GW2       0.338500
     87 H42         -3.0020    -2.0010    -1.4540 h1         1 GW2       0.078700
     88 H43         -2.4730    -0.5830    -4.1400 hc         1 GW2       0.052367
     89 H44         -1.6850    -2.0780    -3.5900 hc         1 GW2       0.052367
     90 H45         -3.4270    -2.0680    -3.9270 hc         1 GW2       0.052367
     91 H46         -4.0180     0.7130    -1.7850 hn         1 GW2       0.331500
     92 H47         -6.0610     1.0680    -1.1010 h1         1 GW2       0.046700
     93 H48         -6.7570     0.6880    -2.6690 h1         1 GW2       0.046700
     94 H50         -8.3920     1.7640    -0.3470 h1         1 GW2       0.039700
     95 H51         -9.0430     1.2890    -1.9210 h1         1 GW2       0.039700
     96 H52        -10.7980     1.2770    -0.1030 h1         1 GW2       0.054950
     97 H53        -10.6010    -0.3270    -0.8500 h1         1 GW2       0.054950
     98 H54         -8.6990    -1.6280     2.0120 h1         1 GW2       0.054950
     99 H55         -9.3480    -2.0600     0.4120 h1         1 GW2       0.054950
    100 H56         -6.9000    -1.6850     0.2490 h1         1 GW2       0.039700
    101 H57         -7.0500    -0.0970     1.0080 h1         1 GW2       0.039700
    102 C26         -1.6880    -0.2940    -1.4370 c          1 GW2       0.594100
@<TRIPOS>BOND
     1     1     2 1   
     2     1     8 1   
     3     1    12 1   
     4     1    46 1   
     5     2     3 1   
     6     2     4 1   
     7     2    47 1   
     8     3    14 1   
     9     3    48 1   
    10     3    49 1   
    11     4     5 1   
    12     4    50 1   
    13     4    51 1   
    14     5    15 1   
    15     5    20 1   
    16     5    52 1   
    17     6    15 1   
    18     6    17 1   
    19     6    18 1   
    20     6    53 1   
    21     7    21 1   
    22     7    23 1   
    23     7    32 1   
    24     7    54 1   
    25     8     9 1   
    26     8    55 1   
    27     8    56 1   
    28     9    10 1   
    29     9    57 1   
    30     9    58 1   
    31    10    11 1   
    32    10    59 1   
    33    10    60 1   
    34    11    12 1   
    35    11    61 1   
    36    11    62 1   
    37    12    13 1   
    38    12    63 1   
    39    13    14 1   
    40    13    64 1   
    41    13    65 1   
    42    14    66 1   
    43    14    67 1   
    44    15    16 1   
    45    15    68 1   
    46    16    69 1   
    47    17    70 1   
    48    17    71 1   
    49    17    72 1   
    50    18    19 1   
    51    18    73 1   
    52    18    74 1   
    53    19    75 1   
    54    20    21 1   
    55    20    76 1   
    56    21    22 2   
    57    23    24 1   
    58    23    77 1   
    59    23    78 1   
    60    24    25 ar  
    61    24    31 ar  
    62    25    26 ar  
    63    25    79 1   
    64    26    27 ar  
    65    26    80 1   
    66    27    28 1   
    67    27    30 ar  
    68    28    29 1   
    69    29    81 1   
    70    29    82 1   
    71    29    83 1   
    72    30    31 ar  
    73    30    84 1   
    74    31    85 1   
    75    32    86 1   
    76    32   102 1   
    77    33   102 2   
    78    34    35 1   
    79    34    36 1   
    80    34    87 1   
    81    34   102 1   
    82    35    88 1   
    83    35    89 1   
    84    35    90 1   
    85    36    37 1   
    86    36    91 1   
    87    37    38 2   
    88    37    39 1   
    89    39    40 1   
    90    39    92 1   
    91    39    93 1   
    92    40    41 1   
    93    40    45 1   
    94    41    42 1   
    95    41    94 1   
    96    41    95 1   
    97    42    43 1   
    98    42    96 1   
    99    42    97 1   
   100    43    44 1   
   101    44    45 1   
   102    44    98 1   
   103    44    99 1   
   104    45   100 1   
   105    45   101 1   
@<TRIPOS>SUBSTRUCTURE
     1 GW2         1 TEMP              0 ****  ****    0 ROOT
