@<TRIPOS>MOLECULE
GW2
  102   105     1     0     0
SMALL
bcc


@<TRIPOS>ATOM
      1 C4           6.1160     1.5280    -1.1790 c6         1 GW2      -0.053700
      2 C5           4.9620     0.5090    -1.0930 c6         1 GW2      -0.049700
      3 C6           4.9150    -0.3770    -2.3410 c6         1 GW2      -0.076400
      4 C7           5.0790    -0.3500     0.1690 c3         1 GW2      -0.088400
      5 C8           3.9340    -1.3290     0.4120 c3         1 GW2       0.079700
      6 C10          5.3620    -3.0380     1.7020 c3         1 GW2      -0.053700
      7 C24          0.3290    -0.1350     0.2810 c3         1 GW2       0.024700
      8 C53          6.1330     2.5030     0.0010 c6         1 GW2      -0.072400
      9 C52          7.2780     3.5070    -0.0860 c6         1 GW2      -0.073400
     10 C51          7.2440     4.2750    -1.4010 c6         1 GW2      -0.073400
     11 C50          7.2270     3.3120    -2.5800 c6         1 GW2      -0.071400
     12 C3           6.0690     2.3200    -2.4950 c6         1 GW2      -0.057700
     13 C2           6.0430     1.3940    -3.7040 c6         1 GW2      -0.072400
     14 C1           4.8710     0.4280    -3.6320 c6         1 GW2      -0.072400
     15 C9           4.1260    -2.1350     1.7120 c3         1 GW2       0.137100
     16 O21          2.9980    -2.9470     1.9640 oh         1 GW2      -0.587800
     17 C11          5.3540    -4.0630     0.5720 c3         1 GW2      -0.083100
     18 C12          5.5200    -3.7050     3.0650 c3         1 GW2       0.142400
     19 O13          6.8000    -4.2970     3.1380 oh         1 GW2      -0.602800
     20 N22          2.6780    -0.6060     0.4960 ns         1 GW2      -0.575900
     21 C23          1.5570    -0.9240    -0.1670 c          1 GW2       0.661100
     22 O49          1.4750    -1.8010    -1.0120 o          1 GW2      -0.591100
     23 C40         -0.2050    -0.7560     1.5930 c3         1 GW2      -0.039100
     24 C41         -1.4450    -0.0710     2.0860 ca         1 GW2      -0.123300
     25 C48         -1.3580     1.0660     2.8900 ca         1 GW2      -0.077500
     26 C47         -2.4880     1.7330     3.3210 ca         1 GW2      -0.188500
     27 C44         -3.7560     1.2770     2.9500 ca         1 GW2       0.144100
     28 O45         -4.8040     1.9800     3.4230 os         1 GW2      -0.316900
     29 C46         -6.1090     1.5620     3.0840 c3         1 GW2       0.125700
     30 C43         -3.8600     0.1490     2.1430 ca         1 GW2      -0.188500
     31 C42         -2.7090    -0.5100     1.7230 ca         1 GW2      -0.077500
     32 N25         -0.6670    -0.1670    -0.7540 ns         1 GW2      -0.549900
     33 O39         -1.3810     1.9700    -0.5300 o          1 GW2      -0.604100
     34 C27         -2.5350     0.5860    -2.0970 c3         1 GW2       0.042700
     35 C38         -2.2710     1.4170    -3.3490 c3         1 GW2      -0.106100
     36 N28         -3.8130     0.8930    -1.4890 ns         1 GW2      -0.577900
     37 C29         -4.9690     0.3320    -1.8770 c          1 GW2       0.664100
     38 O37         -5.0430    -0.5270    -2.7400 o          1 GW2      -0.581100
     39 C30         -6.1910     0.8930    -1.1640 c3         1 GW2       0.087800
     40 N31         -7.2760    -0.0460    -1.1040 n3         1 GW2      -0.692600
     41 C36         -8.5200     0.6010    -0.7230 c6         1 GW2       0.127300
     42 C35         -9.6500    -0.4100    -0.7280 c6         1 GW2       0.130400
     43 O34         -9.3790    -1.4940     0.1330 os         1 GW2      -0.405600
     44 C33         -8.1720    -2.1290    -0.2240 c6         1 GW2       0.130400
     45 C32         -7.0050    -1.1600    -0.2140 c6         1 GW2       0.127300
     46 H1           7.0600     0.9600    -1.1710 hc         1 GW2       0.046700
     47 H2           4.0260     1.0850    -1.0490 hc         1 GW2       0.047700
     48 H3           5.8010    -1.0240    -2.3500 hc         1 GW2       0.044700
     49 H4           4.0470    -1.0400    -2.3000 hc         1 GW2       0.044700
     50 H5           6.0180    -0.9080     0.1150 hc         1 GW2       0.047700
     51 H6           5.1600     0.2860     1.0560 hc         1 GW2       0.047700
     52 H7           3.8380    -2.0270    -0.4200 h1         1 GW2       0.101700
     53 H8           6.2310    -2.3830     1.5750 hc         1 GW2       0.059700
     54 H9           0.5970     0.9070     0.4650 h1         1 GW2       0.091700
     55 H10          5.1770     3.0430     0.0210 hc         1 GW2       0.034700
     56 H11          6.2030     1.9680     0.9500 hc         1 GW2       0.034700
     57 H12          7.2340     4.1940     0.7620 hc         1 GW2       0.038200
     58 H13          8.2320     2.9740    -0.0060 hc         1 GW2       0.038200
     59 H14          6.3470     4.9040    -1.4310 hc         1 GW2       0.039200
     60 H15          8.1000     4.9510    -1.4710 hc         1 GW2       0.039200
     61 H16          7.1680     3.8650    -3.5220 hc         1 GW2       0.039200
     62 H17          8.1720     2.7550    -2.6070 hc         1 GW2       0.039200
     63 H18          5.1320     2.8990    -2.4960 hc         1 GW2       0.045700
     64 H19          6.0000     1.9860    -4.6240 hc         1 GW2       0.039200
     65 H20          6.9820     0.8280    -3.7420 hc         1 GW2       0.039200
     66 H21          4.8720    -0.2440    -4.4940 hc         1 GW2       0.041700
     67 H22          3.9320     0.9910    -3.6770 hc         1 GW2       0.041700
     68 H23          4.2570    -1.4090     2.5300 h1         1 GW2       0.019700
     69 H24          2.2990    -2.4030     2.3360 ho         1 GW2       0.399000
     70 H25          4.4720    -4.7020     0.6210 hc         1 GW2       0.043033
     71 H26          5.3710    -3.5910    -0.4110 hc         1 GW2       0.043033
     72 H27          6.2330    -4.7040     0.6300 hc         1 GW2       0.043033
     73 H28          5.3930    -2.9480     3.8520 h1         1 GW2       0.023700
     74 H29          4.7290    -4.4510     3.2070 h1         1 GW2       0.023700
     75 H30          6.8410    -4.8190     3.9430 ho         1 GW2       0.405000
     76 H31          2.6470     0.1770     1.1330 hn         1 GW2       0.309500
     77 H32         -0.4000    -1.8180     1.4220 hc         1 GW2       0.052700
     78 H33          0.5790    -0.6950     2.3530 hc         1 GW2       0.052700
     79 H34         -0.3850     1.4390     3.1880 ha         1 GW2       0.128500
     80 H35         -2.4000     2.6090     3.9510 ha         1 GW2       0.140000
     81 H36         -6.3240     0.5500     3.4380 h1         1 GW2       0.040367
     82 H37         -6.7950     2.2530     3.5660 h1         1 GW2       0.040367
     83 H38         -6.2810     1.5990     2.0040 h1         1 GW2       0.040367
     84 H39         -4.8220    -0.2410     1.8400 ha         1 GW2       0.140000
     85 H40         -2.8150    -1.3880     1.0970 ha         1 GW2       0.128500
     86 H41         -0.8230    -1.0530    -1.2100 hn         1 GW2       0.338500
     87 H42         -2.5380    -0.4720    -2.3640 h1         1 GW2       0.078700
     88 H43         -2.2810     2.4820    -3.1190 hc         1 GW2       0.052367
     89 H44         -1.3020     1.1660    -3.7810 hc         1 GW2       0.052367
     90 H45         -3.0350     1.2180    -4.0990 hc         1 GW2       0.052367
     91 H46         -3.8290     1.6200    -0.7900 hn         1 GW2       0.331500
     92 H47         -5.9000     1.2740    -0.1700 h1         1 GW2       0.046700
     93 H48         -6.5130     1.7700    -1.7360 h1         1 GW2       0.046700
     94 H50         -8.4500     1.0690     0.2750 h1         1 GW2       0.039700
     95 H51         -8.7490     1.3960    -1.4360 h1         1 GW2       0.039700
     96 H52        -10.5730     0.0590    -0.3840 h1         1 GW2       0.054950
     97 H53         -9.8130    -0.7660    -1.7550 h1         1 GW2       0.054950
     98 H54         -7.9970    -2.9300     0.4960 h1         1 GW2       0.054950
     99 H55         -8.2550    -2.5810    -1.2220 h1         1 GW2       0.054950
    100 H56         -6.1100    -1.6920    -0.5400 h1         1 GW2       0.039700
    101 H57         -6.8230    -0.8160     0.8210 h1         1 GW2       0.039700
    102 C26         -1.4700     0.8660    -1.0420 c          1 GW2       0.661100
@<TRIPOS>BOND
     1     1     2 1   
     2     1     8 1   
     3     1    12 1   
     4     1    46 1   
     5     2     3 1   
     6     2     4 1   
     7     2    47 1   
     8     3    14 1   
     9     3    48 1   
    10     3    49 1   
    11     4     5 1   
    12     4    50 1   
    13     4    51 1   
    14     5    15 1   
    15     5    20 1   
    16     5    52 1   
    17     6    15 1   
    18     6    17 1   
    19     6    18 1   
    20     6    53 1   
    21     7    21 1   
    22     7    23 1   
    23     7    32 1   
    24     7    54 1   
    25     8     9 1   
    26     8    55 1   
    27     8    56 1   
    28     9    10 1   
    29     9    57 1   
    30     9    58 1   
    31    10    11 1   
    32    10    59 1   
    33    10    60 1   
    34    11    12 1   
    35    11    61 1   
    36    11    62 1   
    37    12    13 1   
    38    12    63 1   
    39    13    14 1   
    40    13    64 1   
    41    13    65 1   
    42    14    66 1   
    43    14    67 1   
    44    15    16 1   
    45    15    68 1   
    46    16    69 1   
    47    17    70 1   
    48    17    71 1   
    49    17    72 1   
    50    18    19 1   
    51    18    73 1   
    52    18    74 1   
    53    19    75 1   
    54    20    21 1   
    55    20    76 1   
    56    21    22 2   
    57    23    24 1   
    58    23    77 1   
    59    23    78 1   
    60    24    25 ar  
    61    24    31 ar  
    62    25    26 ar  
    63    25    79 1   
    64    26    27 ar  
    65    26    80 1   
    66    27    28 1   
    67    27    30 ar  
    68    28    29 1   
    69    29    81 1   
    70    29    82 1   
    71    29    83 1   
    72    30    31 ar  
    73    30    84 1   
    74    31    85 1   
    75    32    86 1   
    76    32   102 1   
    77    33   102 2   
    78    34    35 1   
    79    34    36 1   
    80    34    87 1   
    81    34   102 1   
    82    35    88 1   
    83    35    89 1   
    84    35    90 1   
    85    36    37 1   
    86    36    91 1   
    87    37    38 2   
    88    37    39 1   
    89    39    40 1   
    90    39    92 1   
    91    39    93 1   
    92    40    41 1   
    93    40    45 1   
    94    41    42 1   
    95    41    94 1   
    96    41    95 1   
    97    42    43 1   
    98    42    96 1   
    99    42    97 1   
   100    43    44 1   
   101    44    45 1   
   102    44    98 1   
   103    44    99 1   
   104    45   100 1   
   105    45   101 1   
@<TRIPOS>SUBSTRUCTURE
     1 GW2         1 TEMP              0 ****  ****    0 ROOT
