@<TRIPOS>MOLECULE
GW3
   39    41     1     0     0
SMALL
bcc


@<TRIPOS>ATOM
      1 C1           1.0180     0.0740    -1.8880 ca         1 GW3       0.481600
      2 C2          -0.3570     0.1120    -1.5750 ca         1 GW3      -0.305600
      3 C3          -1.2280     0.1430    -2.7090 ca         1 GW3       0.744200
      4 N4          -0.7670     0.0560    -3.9400 nb         1 GW3      -0.857000
      5 C5           0.5640    -0.0270    -4.1080 ca         1 GW3       0.925900
      6 N6           1.4740     0.0040    -3.1600 nb         1 GW3      -0.807000
      7 N7          -2.5670     0.2410    -2.5660 nv         1 GW3      -0.944500
      8 C8           1.9800     0.1050    -0.8410 ca         1 GW3      -0.192300
      9 C9           1.6060     0.1500     0.4720 ca         1 GW3      -0.089000
     10 C12          0.2380     0.1520     0.7850 ca         1 GW3      -0.097200
     11 C13         -0.7580     0.1180    -0.2080 ca         1 GW3      -0.041800
     12 C14         -2.0020     0.0740     0.4850 cc         1 GW3      -0.214200
     13 C15         -1.7130     0.0970     1.8250 cd         1 GW3      -0.115100
     14 N16         -0.3690     0.1540     2.0130 na         1 GW3      -0.030400
     15 N19          0.9880    -0.0900    -5.3990 nv         1 GW3      -0.939500
     16 C25          0.2970     0.1240     3.3100 c3         1 GW3       0.056000
     17 C27         -0.1620     1.3030     4.1700 c3         1 GW3      -0.089400
     18 C30          0.6560     1.4730     5.4430 c3         1 GW3      -0.090600
     19 C34          0.1060    -1.2330     3.9860 c3         1 GW3      -0.089400
     20 C37          0.5090    -2.4110     3.1110 c3         1 GW3      -0.090600
     21 HN71        -3.0910     0.4230    -3.4070 hn         1 GW3       0.425800
     22 HN72        -2.9470     0.6640    -1.7380 hn         1 GW3       0.425800
     23 H8           3.0270     0.0860    -1.1120 ha         1 GW3       0.148000
     24 H9           2.3610     0.1690     1.2470 ha         1 GW3       0.130000
     25 H14         -3.0020     0.0020     0.0920 ha         1 GW3       0.148000
     26 H15         -2.3930     0.0720     2.6610 h4         1 GW3       0.161000
     27 HN91         0.3190    -0.3930    -6.0860 hn         1 GW3       0.424300
     28 HN92         1.9330    -0.3970    -5.5560 hn         1 GW3       0.424300
     29 H25          1.3630     0.2570     3.1090 h1         1 GW3       0.065700
     30 H271        -1.2180     1.1830     4.4270 hc         1 GW3       0.049450
     31 H272        -0.0890     2.2130     3.5700 hc         1 GW3       0.049450
     32 H301         0.3400     2.3680     5.9790 hc         1 GW3       0.039033
     33 H302         0.5430     0.6300     6.1240 hc         1 GW3       0.039033
     34 H303         1.7190     1.5810     5.2190 hc         1 GW3       0.039033
     35 H341         0.7050    -1.2400     4.8980 hc         1 GW3       0.049450
     36 H342        -0.9370    -1.3390     4.3030 hc         1 GW3       0.049450
     37 H371         0.4430    -3.3440     3.6700 hc         1 GW3       0.039033
     38 H372        -0.1360    -2.5060     2.2370 hc         1 GW3       0.039033
     39 H373         1.5370    -2.3120     2.7580 hc         1 GW3       0.039033
@<TRIPOS>BOND
     1     1     2 ar  
     2     1     6 ar  
     3     1     8 ar  
     4     2     3 ar  
     5     2    11 ar  
     6     3     4 ar  
     7     3     7 1   
     8     4     5 ar  
     9     5     6 ar  
    10     5    15 1   
    11     7    21 1   
    12     7    22 1   
    13     8     9 ar  
    14     8    23 1   
    15     9    10 ar  
    16     9    24 1   
    17    10    11 ar  
    18    10    14 1   
    19    11    12 1   
    20    12    13 2   
    21    12    25 1   
    22    13    14 1   
    23    13    26 1   
    24    14    16 1   
    25    15    27 1   
    26    15    28 1   
    27    16    17 1   
    28    16    19 1   
    29    16    29 1   
    30    17    18 1   
    31    17    30 1   
    32    17    31 1   
    33    18    32 1   
    34    18    33 1   
    35    18    34 1   
    36    19    20 1   
    37    19    35 1   
    38    19    36 1   
    39    20    37 1   
    40    20    38 1   
    41    20    39 1   
@<TRIPOS>SUBSTRUCTURE
     1 GW3         1 TEMP              0 ****  ****    0 ROOT
