@<TRIPOS>MOLECULE
GW3
   39    41     1     0     0
SMALL
No Charge or Current Charge


@<TRIPOS>ATOM
      1 C1           1.0300    -0.0220    -1.9060 ca         1 GW3       0.088000
      2 C2          -0.3570     0.0940    -1.6060 ca         1 GW3      -0.175000
      3 C3          -1.2390     0.1570    -2.7140 ca         1 GW3       0.415900
      4 N4          -0.8090     0.0900    -3.9780 nb         1 GW3      -0.331000
      5 C5           0.5090    -0.0350    -4.1370 ca         1 GW3       0.399900
      6 N6           1.4490    -0.0900    -3.1860 nb         1 GW3      -0.281000
      7 N7          -2.5810     0.3470    -2.6270 nv         1 GW3      -1.054900
      8 C8           1.9730    -0.0680    -0.8550 ca         1 GW3      -0.109000
      9 C9           1.5680    -0.0010     0.4900 ca         1 GW3      -0.071000
     10 C12          0.1960     0.1020     0.7720 ca         1 GW3      -0.097200
     11 C13         -0.7360     0.1350    -0.2400 ca         1 GW3      -0.041800
     12 C14         -2.0250     0.1720     0.4060 cc         1 GW3      -0.264200
     13 C15         -1.8140     0.1780     1.7770 cd         1 GW3      -0.165100
     14 N16         -0.4250     0.1550     2.0190 na         1 GW3      -0.059700
     15 N19          0.9450    -0.1070    -5.4150 nv         1 GW3      -1.049900
     16 C25          0.2710     0.1330     3.3270 c3         1 GW3       0.085300
     17 C27         -0.2290     1.2890     4.2370 c3         1 GW3      -0.089400
     18 C30          0.6210     1.5300     5.5040 c3         1 GW3      -0.090600
     19 C34          0.1670    -1.2610     4.0060 c3         1 GW3      -0.089400
     20 C37          0.7310    -2.4220     3.1580 c3         1 GW3      -0.090600
     21 HN71        -3.0670     0.5830    -3.4880 hn         1 GW3       0.481000
     22 HN72        -2.9290     0.7970    -1.7880 hn         1 GW3       0.481000
     23 H8           3.0320    -0.1560    -1.0890 ha         1 GW3       0.130000
     24 H9           2.3140    -0.0430     1.2790 ha         1 GW3       0.112000
     25 H14         -3.0100     0.1330    -0.0490 ha         1 GW3       0.198000
     26 H15         -2.5370     0.1800     2.5880 h4         1 GW3       0.211000
     27 HN91         0.2630    -0.2890    -6.1460 hn         1 GW3       0.479500
     28 HN92         1.8980    -0.4180    -5.5860 hn         1 GW3       0.479500
     29 H25          1.3340     0.3270     3.1440 h1         1 GW3       0.065700
     30 H271        -1.2690     1.1050     4.5320 hc         1 GW3       0.049450
     31 H272        -0.2300     2.2170     3.6510 hc         1 GW3       0.049450
     32 H301         0.2730     2.4290     6.0270 hc         1 GW3       0.039033
     33 H302         0.5450     0.6880     6.2010 hc         1 GW3       0.039033
     34 H303         1.6760     1.6750     5.2430 hc         1 GW3       0.039033
     35 H341         0.7120    -1.2470     4.9570 hc         1 GW3       0.049450
     36 H342        -0.8820    -1.4720     4.2470 hc         1 GW3       0.049450
     37 H371         0.6830    -3.3620     3.7200 hc         1 GW3       0.039033
     38 H372         0.1570    -2.5520     2.2330 hc         1 GW3       0.039033
     39 H373         1.7790    -2.2360     2.8930 hc         1 GW3       0.039033
@<TRIPOS>BOND
     1     1     2 ar  
     2     1     6 ar  
     3     1     8 ar  
     4     2     3 ar  
     5     2    11 ar  
     6     3     4 ar  
     7     3     7 1   
     8     4     5 ar  
     9     5     6 ar  
    10     5    15 1   
    11     7    21 1   
    12     7    22 1   
    13     8     9 ar  
    14     8    23 1   
    15     9    10 ar  
    16     9    24 1   
    17    10    11 ar  
    18    10    14 1   
    19    11    12 1   
    20    12    13 2   
    21    12    25 1   
    22    13    14 1   
    23    13    26 1   
    24    14    16 1   
    25    15    27 1   
    26    15    28 1   
    27    16    17 1   
    28    16    19 1   
    29    16    29 1   
    30    17    18 1   
    31    17    30 1   
    32    17    31 1   
    33    18    32 1   
    34    18    33 1   
    35    18    34 1   
    36    19    20 1   
    37    19    35 1   
    38    19    36 1   
    39    20    37 1   
    40    20    38 1   
    41    20    39 1   
@<TRIPOS>SUBSTRUCTURE
     1 GW3         1 TEMP              0 ****  ****    0 ROOT
