@<TRIPOS>MOLECULE
GW4
   78    82     1     0     0
SMALL
No Charge or Current Charge


@<TRIPOS>ATOM
      1 O            7.9300     0.4600     0.8770 os         1 GW4      -0.258000
      2 C            7.4950    -0.3340    -0.1450 cc         1 GW4       0.507500
      3 N            6.2850    -0.0370    -0.6010 nd         1 GW4      -0.678000
      4 C1           5.8980     1.0310     0.1790 cd         1 GW4       0.235300
      5 C2           6.9010     1.3230     1.0700 cc         1 GW4       0.120300
      6 C3           7.0100     2.3700     2.1420 c3         1 GW4      -0.118400
      7 C4           8.3720    -1.4090    -0.6310 ca         1 GW4      -0.136500
      8 C5           7.9550    -2.2520    -1.6870 ca         1 GW4      -0.072500
      9 C6           8.7900    -3.2810    -2.1540 ca         1 GW4      -0.119000
     10 C7          10.0530    -3.4820    -1.5750 ca         1 GW4      -0.091000
     11 C8          10.4800    -2.6520    -0.5270 ca         1 GW4      -0.119000
     12 C9           9.6470    -1.6220    -0.0560 ca         1 GW4      -0.072500
     13 N1          -3.9160    -0.3860     0.3420 nu         1 GW4      -0.807200
     14 C10         -3.5970    -0.9790     1.6570 c3         1 GW4       0.211500
     15 C11         -4.8940    -1.5120     2.3280 c3         1 GW4       0.072000
     16 N2          -5.6340    -2.4780     1.4940 ns         1 GW4      -0.506900
     17 C13         -1.5110     0.4870     2.0480 ca         1 GW4      -0.117300
     18 C14         -1.3770     1.6650     1.2900 ca         1 GW4      -0.065500
     19 C15         -0.3730    -0.2980     2.3140 ca         1 GW4      -0.065500
     20 C16         -0.1200     2.0470     0.7920 ca         1 GW4      -0.172000
     21 C17          0.8860     0.0830     1.8160 ca         1 GW4      -0.172000
     22 C18          1.0140     1.2610     1.0480 ca         1 GW4       0.150100
     23 O1           2.2210     1.6830     0.5290 os         1 GW4      -0.352100
     24 C19         -3.2450    -0.5590    -0.8730 ca         1 GW4       0.378000
     25 C20         -3.8730    -0.1980    -2.0830 ca         1 GW4      -0.258600
     26 C21         -3.2210    -0.4290    -3.3110 ca         1 GW4      -0.026000
     27 C22         -1.9340    -0.9860    -3.3360 ca         1 GW4      -0.180000
     28 C23         -1.2950    -1.3260    -2.1370 ca         1 GW4      -0.047000
     29 C24         -1.9520    -1.1180    -0.9140 ca         1 GW4      -0.204000
     30 C25         -5.5020     1.6620    -1.2970 ca         1 GW4      -0.178600
     31 C26         -6.8220     2.0130    -0.9390 ca         1 GW4      -0.055500
     32 C27         -7.0730     3.1790    -0.1950 ca         1 GW4      -0.132000
     33 C28         -6.0110     4.0100     0.1940 ca         1 GW4      -0.089000
     34 C29         -4.6960     3.6770    -0.1670 ca         1 GW4      -0.132000
     35 C30         -4.4410     2.5120    -0.9110 ca         1 GW4      -0.055500
     36 C31         -5.2420     0.4080    -2.1020 c          1 GW4       0.602300
     37 O2          -6.1220    -0.0920    -2.7940 o          1 GW4      -0.525100
     38 C32          3.4380     0.9440     0.7240 c3         1 GW4       0.166600
     39 C33          4.5650     1.7060     0.0090 c3         1 GW4      -0.097700
     40 C34         -6.6290    -2.1410     0.6060 c          1 GW4       0.605100
     41 C35         -7.1670    -3.3000    -0.2210 c3         1 GW4      -0.181100
     42 O3          -7.0530    -1.0020     0.4910 o          1 GW4      -0.617100
     43 H31          7.8920     2.2010     2.7720 hc         1 GW4       0.058700
     44 H32          7.0960     3.3690     1.6990 hc         1 GW4       0.058700
     45 H33          6.1250     2.3580     2.7880 hc         1 GW4       0.058700
     46 H5           6.9790    -2.1110    -2.1480 ha         1 GW4       0.130500
     47 H6           8.4570    -3.9230    -2.9670 ha         1 GW4       0.117500
     48 H7          10.6990    -4.2790    -1.9380 ha         1 GW4       0.116000
     49 H8          11.4580    -2.8070    -0.0760 ha         1 GW4       0.117500
     50 H9           9.9990    -0.9910     0.7580 ha         1 GW4       0.130500
     51 HN1         -4.8500     0.0070     0.2640 hn         1 GW4       0.340000
     52 H10         -2.9370    -1.8470     1.5280 h1         1 GW4       0.057700
     53 H111        -4.6300    -2.0050     3.2730 h1         1 GW4       0.064700
     54 H112        -5.5520    -0.6670     2.5710 h1         1 GW4       0.064700
     55 HN2         -5.3530    -3.4510     1.5140 hn         1 GW4       0.313500
     56 H121        -3.5300     0.9310     2.6920 hc         1 GW4       0.051700
     57 H122        -2.7660    -0.3770     3.5670 hc         1 GW4       0.051700
     58 H14         -2.2490     2.2790     1.0810 ha         1 GW4       0.112500
     59 H15         -0.4640    -1.2110     2.8990 ha         1 GW4       0.112500
     60 H16         -0.0250     2.9540     0.2020 ha         1 GW4       0.122000
     61 H17          1.7430    -0.5460     2.0330 ha         1 GW4       0.122000
     62 H21         -3.7090    -0.1640    -4.2480 ha         1 GW4       0.121000
     63 H22         -1.4320    -1.1520    -4.2870 ha         1 GW4       0.117000
     64 H23         -0.2960    -1.7570    -2.1530 ha         1 GW4       0.109000
     65 H24         -1.4420    -1.3990    -0.0010 ha         1 GW4       0.119000
     66 H26         -7.6570     1.3760    -1.2280 ha         1 GW4       0.131500
     67 H27         -8.0930     3.4360     0.0820 ha         1 GW4       0.114500
     68 H28         -6.2070     4.9120     0.7700 ha         1 GW4       0.110000
     69 H29         -3.8720     4.3230     0.1280 ha         1 GW4       0.114500
     70 H30         -3.4150     2.2790    -1.1890 ha         1 GW4       0.131500
     71 H321         3.6740     0.8610     1.7930 h1         1 GW4       0.042200
     72 H322         3.3520    -0.0660     0.3020 h1         1 GW4       0.042200
     73 H331         4.6120     2.7290     0.4000 hc         1 GW4       0.067200
     74 H332         4.3230     1.7880    -1.0570 hc         1 GW4       0.067200
     75 H351        -7.9620    -2.9930    -0.9090 hc         1 GW4       0.065367
     76 H352        -6.3330    -3.7740    -0.7510 hc         1 GW4       0.065367
     77 H353        -7.4990    -4.0970     0.4540 hc         1 GW4       0.065367
     78 C12         -2.8810     0.0560     2.5660 c3         1 GW4      -0.030100
@<TRIPOS>BOND
     1     1     2 1   
     2     1     5 1   
     3     2     3 2   
     4     2     7 1   
     5     3     4 1   
     6     4     5 2   
     7     4    39 1   
     8     5     6 1   
     9     6    43 1   
    10     6    44 1   
    11     6    45 1   
    12     7     8 ar  
    13     7    12 ar  
    14     8     9 ar  
    15     8    46 1   
    16     9    10 ar  
    17     9    47 1   
    18    10    11 ar  
    19    10    48 1   
    20    11    12 ar  
    21    11    49 1   
    22    12    50 1   
    23    13    14 1   
    24    13    24 1   
    25    13    51 1   
    26    14    15 1   
    27    14    52 1   
    28    14    78 1   
    29    15    16 1   
    30    15    53 1   
    31    15    54 1   
    32    16    40 1   
    33    16    55 1   
    34    17    18 ar  
    35    17    19 ar  
    36    17    78 1   
    37    18    20 ar  
    38    18    58 1   
    39    19    21 ar  
    40    19    59 1   
    41    20    22 ar  
    42    20    60 1   
    43    21    22 ar  
    44    21    61 1   
    45    22    23 1   
    46    23    38 1   
    47    24    25 ar  
    48    24    29 ar  
    49    25    26 ar  
    50    25    36 1   
    51    26    27 ar  
    52    26    62 1   
    53    27    28 ar  
    54    27    63 1   
    55    28    29 ar  
    56    28    64 1   
    57    29    65 1   
    58    30    31 ar  
    59    30    35 ar  
    60    30    36 1   
    61    31    32 ar  
    62    31    66 1   
    63    32    33 ar  
    64    32    67 1   
    65    33    34 ar  
    66    33    68 1   
    67    34    35 ar  
    68    34    69 1   
    69    35    70 1   
    70    36    37 2   
    71    38    39 1   
    72    38    71 1   
    73    38    72 1   
    74    39    73 1   
    75    39    74 1   
    76    40    41 1   
    77    40    42 2   
    78    41    75 1   
    79    41    76 1   
    80    41    77 1   
    81    56    78 1   
    82    57    78 1   
@<TRIPOS>SUBSTRUCTURE
     1 GW4         1 TEMP              0 ****  ****    0 ROOT
