@<TRIPOS>MOLECULE
GW4
   78    82     1     0     0
SMALL
abcg2


@<TRIPOS>ATOM
      1 O            7.6420     0.5830     0.6430 os         1 GW4      -0.258000
      2 C            7.0010    -0.2400    -0.1990 cc         1 GW4       0.507500
      3 N            5.7900     0.1320    -0.4430 nd         1 GW4      -0.678000
      4 C1           5.6100     1.2890     0.2870 cd         1 GW4       0.235300
      5 C2           6.7530     1.5630     0.9590 cc         1 GW4       0.120300
      6 C3           7.1800     2.6300     1.8870 c3         1 GW4      -0.118400
      7 C4           7.7040    -1.3990    -0.7280 ca         1 GW4      -0.136500
      8 C5           7.0430    -2.2410    -1.6240 ca         1 GW4      -0.072500
      9 C6           7.6890    -3.3480    -2.1480 ca         1 GW4      -0.119000
     10 C7           9.0020    -3.6290    -1.7860 ca         1 GW4      -0.091000
     11 C8           9.6620    -2.7950    -0.8930 ca         1 GW4      -0.119000
     12 C9           9.0210    -1.6850    -0.3640 ca         1 GW4      -0.072500
     13 N1          -3.6420    -0.3600     0.4790 nu         1 GW4      -0.807200
     14 C10         -3.4360    -1.0450     1.7360 c3         1 GW4       0.211500
     15 C11         -4.7520    -1.6770     2.2040 c3         1 GW4       0.072000
     16 N2          -5.3110    -2.5710     1.2210 ns         1 GW4      -0.506900
     17 C13         -1.5520     0.4680     2.3970 ca         1 GW4      -0.117300
     18 C14         -1.4870     1.6390     1.6440 ca         1 GW4      -0.065500
     19 C15         -0.3620    -0.1980     2.6580 ca         1 GW4      -0.065500
     20 C16         -0.2850     2.1160     1.1550 ca         1 GW4      -0.172000
     21 C17          0.8580     0.2630     2.1750 ca         1 GW4      -0.172000
     22 C18          0.8990     1.4230     1.4090 ca         1 GW4       0.150100
     23 O1           2.0250     1.9520     0.8830 os         1 GW4      -0.352100
     24 C19         -2.9980    -0.6520    -0.6880 ca         1 GW4       0.378000
     25 C20         -3.5750    -0.3630    -1.9490 ca         1 GW4      -0.258600
     26 C21         -2.9220    -0.7550    -3.1190 ca         1 GW4      -0.026000
     27 C22         -1.6880    -1.3750    -3.0940 ca         1 GW4      -0.180000
     28 C23         -1.0970    -1.6150    -1.8570 ca         1 GW4      -0.047000
     29 C24         -1.7300    -1.2620    -0.6820 ca         1 GW4      -0.204000
     30 C25         -5.1180     1.5940    -1.3660 ca         1 GW4      -0.178600
     31 C26         -6.4240     1.9850    -1.0710 ca         1 GW4      -0.055500
     32 C27         -6.6600     3.1850    -0.4210 ca         1 GW4      -0.132000
     33 C28         -5.5980     4.0130    -0.0780 ca         1 GW4      -0.089000
     34 C29         -4.2960     3.6360    -0.3810 ca         1 GW4      -0.132000
     35 C30         -4.0560     2.4250    -1.0120 ca         1 GW4      -0.055500
     36 C31         -4.8770     0.3320    -2.1190 c          1 GW4       0.602300
     37 O2          -5.7010    -0.0690    -2.9180 o          1 GW4      -0.525100
     38 C32          3.2420     1.2440     1.0250 c3         1 GW4       0.166600
     39 C33          4.3150     2.0220     0.2800 c3         1 GW4      -0.097700
     40 C34         -6.1970    -2.1850     0.2840 c          1 GW4       0.605100
     41 C35         -6.5500    -3.2270    -0.7450 c3         1 GW4      -0.181100
     42 O3          -6.6840    -1.0610     0.2510 o          1 GW4      -0.617100
     43 H31          7.4010     2.2370     2.8810 hc         1 GW4       0.058700
     44 H32          8.0710     3.1450     1.5260 hc         1 GW4       0.058700
     45 H33          6.3860     3.3680     1.9900 hc         1 GW4       0.058700
     46 H5           6.0220    -2.0250    -1.9100 ha         1 GW4       0.130500
     47 H6           7.1670    -3.9930    -2.8430 ha         1 GW4       0.117500
     48 H7           9.5060    -4.4930    -2.1980 ha         1 GW4       0.116000
     49 H8          10.6830    -3.0080    -0.6050 ha         1 GW4       0.117500
     50 H9           9.5530    -1.0480     0.3290 ha         1 GW4       0.130500
     51 HN1         -4.5460     0.0790     0.3990 hn         1 GW4       0.340000
     52 H10         -2.7210    -1.8550     1.5810 h1         1 GW4       0.057700
     53 H111        -4.5760    -2.2320     3.1260 h1         1 GW4       0.064700
     54 H112        -5.4830    -0.8990     2.4300 h1         1 GW4       0.064700
     55 HN2         -4.9140    -3.4930     1.1540 hn         1 GW4       0.313500
     56 H121        -3.5970     0.6930     2.9980 hc         1 GW4       0.051700
     57 H122        -2.7730    -0.6650     3.7480 hc         1 GW4       0.051700
     58 H14         -2.3980     2.1850     1.4310 ha         1 GW4       0.112500
     59 H15         -0.3740    -1.1090     3.2470 ha         1 GW4       0.112500
     60 H16         -0.2550     3.0270     0.5690 ha         1 GW4       0.122000
     61 H17          1.7550    -0.2950     2.4060 ha         1 GW4       0.122000
     62 H21         -3.3910    -0.5380    -4.0710 ha         1 GW4       0.121000
     63 H22         -1.1900    -1.6500    -4.0130 ha         1 GW4       0.117000
     64 H23         -0.1190    -2.0780    -1.8040 ha         1 GW4       0.109000
     65 H24         -1.2210    -1.4350     0.2550 ha         1 GW4       0.119000
     66 H26         -7.2500     1.3370    -1.3310 ha         1 GW4       0.131500
     67 H27         -7.6740     3.4780    -0.1810 ha         1 GW4       0.114500
     68 H28         -5.7860     4.9530     0.4240 ha         1 GW4       0.110000
     69 H29         -3.4690     4.2850    -0.1230 ha         1 GW4       0.114500
     70 H30         -3.0390     2.1350    -1.2450 ha         1 GW4       0.131500
     71 H321         3.5160     1.1460     2.0820 h1         1 GW4       0.042200
     72 H322         3.1510     0.2350     0.6090 h1         1 GW4       0.042200
     73 H331         4.4420     3.0060     0.7370 hc         1 GW4       0.067200
     74 H332         3.9950     2.1830    -0.7520 hc         1 GW4       0.067200
     75 H351        -7.6330    -3.2980    -0.8410 hc         1 GW4       0.065367
     76 H352        -6.1590    -2.9080    -1.7130 hc         1 GW4       0.065367
     77 H353        -6.1520    -4.2160    -0.5230 hc         1 GW4       0.065367
     78 C12         -2.8730    -0.1060     2.8140 c3         1 GW4      -0.030100
@<TRIPOS>BOND
     1     1     2 1   
     2     1     5 1   
     3     2     3 2   
     4     2     7 1   
     5     3     4 1   
     6     4     5 2   
     7     4    39 1   
     8     5     6 1   
     9     6    43 1   
    10     6    44 1   
    11     6    45 1   
    12     7     8 ar  
    13     7    12 ar  
    14     8     9 ar  
    15     8    46 1   
    16     9    10 ar  
    17     9    47 1   
    18    10    11 ar  
    19    10    48 1   
    20    11    12 ar  
    21    11    49 1   
    22    12    50 1   
    23    13    14 1   
    24    13    24 1   
    25    13    51 1   
    26    14    15 1   
    27    14    52 1   
    28    14    78 1   
    29    15    16 1   
    30    15    53 1   
    31    15    54 1   
    32    16    40 1   
    33    16    55 1   
    34    17    18 ar  
    35    17    19 ar  
    36    17    78 1   
    37    18    20 ar  
    38    18    58 1   
    39    19    21 ar  
    40    19    59 1   
    41    20    22 ar  
    42    20    60 1   
    43    21    22 ar  
    44    21    61 1   
    45    22    23 1   
    46    23    38 1   
    47    24    25 ar  
    48    24    29 ar  
    49    25    26 ar  
    50    25    36 1   
    51    26    27 ar  
    52    26    62 1   
    53    27    28 ar  
    54    27    63 1   
    55    28    29 ar  
    56    28    64 1   
    57    29    65 1   
    58    30    31 ar  
    59    30    35 ar  
    60    30    36 1   
    61    31    32 ar  
    62    31    66 1   
    63    32    33 ar  
    64    32    67 1   
    65    33    34 ar  
    66    33    68 1   
    67    34    35 ar  
    68    34    69 1   
    69    35    70 1   
    70    36    37 2   
    71    38    39 1   
    72    38    71 1   
    73    38    72 1   
    74    39    73 1   
    75    39    74 1   
    76    40    41 1   
    77    40    42 2   
    78    41    75 1   
    79    41    76 1   
    80    41    77 1   
    81    56    78 1   
    82    57    78 1   
@<TRIPOS>SUBSTRUCTURE
     1 GW4         1 TEMP              0 ****  ****    0 ROOT
