@<TRIPOS>MOLECULE
GW5
   48    50     1     0     0
SMALL
abcg2


@<TRIPOS>ATOM
      1 C21         -1.5260    -3.4380     0.8100 ca         1 GW5      -0.096500
      2 C22         -0.7420    -4.5710     0.6440 ca         1 GW5      -0.114000
      3 C23          0.1100    -4.6800    -0.4460 ca         1 GW5      -0.112000
      4 C24          0.1670    -3.6460    -1.3720 ca         1 GW5      -0.114000
      5 C25         -0.6090    -2.5100    -1.2000 ca         1 GW5      -0.096500
      6 C20         -1.4590    -2.3810    -0.1000 ca         1 GW5      -0.038800
      7 C3          -2.3140    -1.1800     0.0550 ce         1 GW5      -0.066400
      8 C2          -3.7770    -1.4360     0.3450 c3         1 GW5      -0.033200
      9 C1          -4.1310    -1.2370     1.8190 c3         1 GW5      -0.085100
     10 C4          -1.8140     0.0670    -0.0450 cf         1 GW5       0.020600
     11 C5          -2.6910     1.2660    -0.0590 ca         1 GW5      -0.038800
     12 C6          -2.6340     2.1940     0.9810 ca         1 GW5      -0.097500
     13 C7          -3.4320     3.3290     0.9620 ca         1 GW5      -0.116000
     14 C8          -4.2890     3.5620    -0.1070 ca         1 GW5      -0.118000
     15 C9          -4.3400     2.6540    -1.1560 ca         1 GW5      -0.116000
     16 C10         -3.5460     1.5150    -1.1310 ca         1 GW5      -0.097500
     17 C11         -0.3660     0.3670    -0.1210 ca         1 GW5      -0.104800
     18 C19          0.1220     1.2670    -1.0660 ca         1 GW5      -0.091000
     19 C18          1.4760     1.5500    -1.1450 ca         1 GW5      -0.130000
     20 C12          0.5470    -0.2040     0.7710 ca         1 GW5      -0.091000
     21 C13          1.8950     0.0910     0.7020 ca         1 GW5      -0.130000
     22 C14          2.3940     0.9700    -0.2660 ca         1 GW5       0.014200
     23 C15          3.8100     1.3100    -0.3970 ce         1 GW5      -0.245200
     24 C16          4.8160     0.9010     0.3800 cf         1 GW5      -0.207200
     25 C17          6.2530     1.3100     0.1520 c          1 GW5       0.694200
     26 O2           7.0760     0.8620     0.9780 o          1 GW5      -0.722500
     27 O1           6.5020     2.0480    -0.8220 o          1 GW5      -0.722500
     28 H21         -2.1830    -3.3760     1.6680 ha         1 GW5       0.115000
     29 H22         -0.8020    -5.3720     1.3700 ha         1 GW5       0.108000
     30 H23          0.7170    -5.5660    -0.5790 ha         1 GW5       0.107000
     31 H24          0.8150    -3.7260    -2.2360 ha         1 GW5       0.108000
     32 H25         -0.5630    -1.7180    -1.9350 ha         1 GW5       0.115000
     33 H21A        -4.4040    -0.7760    -0.2560 hc         1 GW5       0.043200
     34 H22A        -4.0340    -2.4520     0.0410 hc         1 GW5       0.043200
     35 H11         -5.1870    -1.4460     1.9910 hc         1 GW5       0.031367
     36 H12A        -3.5550    -1.8960     2.4700 hc         1 GW5       0.031367
     37 H13A        -3.9360    -0.2120     2.1360 hc         1 GW5       0.031367
     38 H6          -1.9600     2.0230     1.8120 ha         1 GW5       0.118000
     39 H7          -3.3830     4.0340     1.7820 ha         1 GW5       0.107000
     40 H8          -4.9080     4.4490    -0.1250 ha         1 GW5       0.104000
     41 H9          -4.9960     2.8330    -1.9990 ha         1 GW5       0.107000
     42 H10         -3.5840     0.8120    -1.9550 ha         1 GW5       0.118000
     43 H19         -0.5590     1.7430    -1.7610 ha         1 GW5       0.102000
     44 H18          1.8320     2.2360    -1.9050 ha         1 GW5       0.115500
     45 H12          0.1940    -0.8860     1.5330 ha         1 GW5       0.102000
     46 H13          2.5650    -0.3740     1.4140 ha         1 GW5       0.115500
     47 H15          4.0510     1.9690    -1.2260 ha         1 GW5       0.191000
     48 H16          4.6300     0.2440     1.2250 ha         1 GW5       0.144000
@<TRIPOS>BOND
     1     1     2 ar  
     2     1     6 ar  
     3     1    28 1   
     4     2     3 ar  
     5     2    29 1   
     6     3     4 ar  
     7     3    30 1   
     8     4     5 ar  
     9     4    31 1   
    10     5     6 ar  
    11     5    32 1   
    12     6     7 1   
    13     7     8 1   
    14     7    10 2   
    15     8     9 1   
    16     8    33 1   
    17     8    34 1   
    18     9    35 1   
    19     9    36 1   
    20     9    37 1   
    21    10    11 1   
    22    10    17 1   
    23    11    12 ar  
    24    11    16 ar  
    25    12    13 ar  
    26    12    38 1   
    27    13    14 ar  
    28    13    39 1   
    29    14    15 ar  
    30    14    40 1   
    31    15    16 ar  
    32    15    41 1   
    33    16    42 1   
    34    17    18 ar  
    35    17    20 ar  
    36    18    19 ar  
    37    18    43 1   
    38    19    22 ar  
    39    19    44 1   
    40    20    21 ar  
    41    20    45 1   
    42    21    22 ar  
    43    21    46 1   
    44    22    23 1   
    45    23    24 2   
    46    23    47 1   
    47    24    25 1   
    48    24    48 1   
    49    25    26 1   
    50    25    27 1   
@<TRIPOS>SUBSTRUCTURE
     1 GW5         1 TEMP              0 ****  ****    0 ROOT
