@<TRIPOS>MOLECULE
GW5
   48    50     1     0     0
SMALL
No Charge or Current Charge


@<TRIPOS>ATOM
      1 C21         -1.4880    -3.4580     0.9150 ca         1 GW5      -0.096500
      2 C22         -0.6830    -4.6050     0.8040 ca         1 GW5      -0.114000
      3 C23          0.1450    -4.7790    -0.3180 ca         1 GW5      -0.112000
      4 C24          0.1660    -3.8040    -1.3290 ca         1 GW5      -0.114000
      5 C25         -0.6400    -2.6580    -1.2180 ca         1 GW5      -0.096500
      6 C20         -1.4710    -2.4750    -0.0960 ca         1 GW5      -0.038800
      7 C3          -2.3200    -1.2500     0.0130 ce         1 GW5      -0.066400
      8 C2          -3.8120    -1.5410     0.1940 c3         1 GW5      -0.033200
      9 C1          -4.3520    -1.1640     1.5890 c3         1 GW5      -0.085100
     10 C4          -1.8290     0.0320    -0.0700 cf         1 GW5       0.020600
     11 C5          -2.6590     1.2590    -0.0380 ca         1 GW5      -0.038800
     12 C6          -2.4630     2.2180     0.9760 ca         1 GW5      -0.097500
     13 C7          -3.2390     3.3890     1.0100 ca         1 GW5      -0.116000
     14 C8          -4.2130     3.6160     0.0240 ca         1 GW5      -0.118000
     15 C9          -4.4060     2.6730    -0.9990 ca         1 GW5      -0.116000
     16 C10         -3.6290     1.5010    -1.0320 ca         1 GW5      -0.097500
     17 C11         -0.3860     0.3770    -0.1430 ca         1 GW5      -0.104800
     18 C19          0.0710     1.3720    -1.0330 ca         1 GW5      -0.091000
     19 C18          1.4360     1.7020    -1.0990 ca         1 GW5      -0.130000
     20 C12          0.5540    -0.2660     0.6880 ca         1 GW5      -0.091000
     21 C13          1.9190     0.0640     0.6200 ca         1 GW5      -0.130000
     22 C14          2.3730     1.0510    -0.2760 ca         1 GW5       0.014200
     23 C15          3.8150     1.4240    -0.3710 ce         1 GW5      -0.245200
     24 C16          4.8900     0.9190     0.3130 cf         1 GW5      -0.207200
     25 C17          6.3090     1.3610     0.1470 c          1 GW5       0.694200
     26 O2           7.1540     0.8090     0.8340 o          1 GW5      -0.722500
     27 O1           6.5660     2.2440    -0.6570 o          1 GW5      -0.722500
     28 H21         -2.1190    -3.3320     1.7900 ha         1 GW5       0.115000
     29 H22         -0.6990    -5.3580     1.5890 ha         1 GW5       0.108000
     30 H23          0.7690    -5.6660    -0.4020 ha         1 GW5       0.107000
     31 H24          0.8070    -3.9360    -2.1980 ha         1 GW5       0.108000
     32 H25         -0.6180    -1.9080    -2.0050 ha         1 GW5       0.115000
     33 H21A        -4.4080    -1.0280    -0.5670 hc         1 GW5       0.043200
     34 H22A        -4.0130    -2.6070     0.0310 hc         1 GW5       0.043200
     35 H11         -5.4090    -1.4430     1.6760 hc         1 GW5       0.031367
     36 H12A        -3.7950    -1.6840     2.3770 hc         1 GW5       0.031367
     37 H13A        -4.2710    -0.0860     1.7660 hc         1 GW5       0.031367
     38 H6          -1.7110     2.0500     1.7440 ha         1 GW5       0.118000
     39 H7          -3.0850     4.1210     1.8000 ha         1 GW5       0.107000
     40 H8          -4.8140     4.5220     0.0490 ha         1 GW5       0.104000
     41 H9          -5.1530     2.8510    -1.7690 ha         1 GW5       0.107000
     42 H10         -3.7710     0.7880    -1.8390 ha         1 GW5       0.118000
     43 H19         -0.6300     1.8860    -1.6860 ha         1 GW5       0.102000
     44 H18          1.7630     2.4680    -1.7980 ha         1 GW5       0.115500
     45 H12          0.2290    -1.0190     1.4000 ha         1 GW5       0.102000
     46 H13          2.6140    -0.4520     1.2750 ha         1 GW5       0.115500
     47 H15          4.0130     2.2150    -1.0980 ha         1 GW5       0.191000
     48 H16          4.7390     0.1300     1.0440 ha         1 GW5       0.144000
@<TRIPOS>BOND
     1     1     2 ar  
     2     1     6 ar  
     3     1    28 1   
     4     2     3 ar  
     5     2    29 1   
     6     3     4 ar  
     7     3    30 1   
     8     4     5 ar  
     9     4    31 1   
    10     5     6 ar  
    11     5    32 1   
    12     6     7 1   
    13     7     8 1   
    14     7    10 2   
    15     8     9 1   
    16     8    33 1   
    17     8    34 1   
    18     9    35 1   
    19     9    36 1   
    20     9    37 1   
    21    10    11 1   
    22    10    17 1   
    23    11    12 ar  
    24    11    16 ar  
    25    12    13 ar  
    26    12    38 1   
    27    13    14 ar  
    28    13    39 1   
    29    14    15 ar  
    30    14    40 1   
    31    15    16 ar  
    32    15    41 1   
    33    16    42 1   
    34    17    18 ar  
    35    17    20 ar  
    36    18    19 ar  
    37    18    43 1   
    38    19    22 ar  
    39    19    44 1   
    40    20    21 ar  
    41    20    45 1   
    42    21    22 ar  
    43    21    46 1   
    44    22    23 1   
    45    23    24 2   
    46    23    47 1   
    47    24    25 1   
    48    24    48 1   
    49    25    26 1   
    50    25    27 1   
@<TRIPOS>SUBSTRUCTURE
     1 GW5         1 TEMP              0 ****  ****    0 ROOT
