@<TRIPOS>MOLECULE
GW7
   45    48     1     0     0
SMALL
No Charge or Current Charge


@<TRIPOS>ATOM
      1 F1           8.2550    -1.0060     1.9690 f          1 GW7      -0.178000
      2 C1           7.6460    -0.3710     0.9440 ca         1 GW7       0.167000
      3 C2           8.3560    -0.1160    -0.2390 ca         1 GW7      -0.141000
      4 C3           7.7200     0.5430    -1.3060 ca         1 GW7      -0.087000
      5 C4           6.3780     0.9460    -1.1830 ca         1 GW7      -0.108000
      6 C5           5.6630     0.6940     0.0060 ca         1 GW7      -0.069300
      7 C6           4.2090     1.1270     0.1390 c3         1 GW7       0.208900
      8 O1           3.3710    -0.0040    -0.1510 os         1 GW7      -0.323100
      9 C7           1.9900     0.0660    -0.1150 ca         1 GW7       0.139100
     10 C8           1.3080     1.2580     0.2150 ca         1 GW7      -0.180000
     11 C9          -0.1000     1.2800     0.2380 ca         1 GW7      -0.059000
     12 C10         -0.8460     0.1230    -0.0720 ca         1 GW7       0.265000
     13 N1          -2.2480     0.1000    -0.0490 nu         1 GW7      -0.938900
     14 C11         -3.2420     1.0580    -0.1980 ca         1 GW7       0.428900
     15 N2          -2.9090     2.2950    -0.6150 nb         1 GW7      -0.260000
     16 C12         -3.9250     3.1770    -0.7710 ca         1 GW7       0.161900
     17 N3          -5.2410     2.9420    -0.5600 nb         1 GW7      -0.181000
     18 C13         -5.5400     1.6960    -0.1560 ca         1 GW7       0.166800
     19 C14         -6.8730     1.2300     0.1190 cc         1 GW7      -0.299800
     20 C15         -6.8820    -0.0990     0.5080 cd         1 GW7      -0.016600
     21 C16         -8.0900    -0.9210     0.8750 c3         1 GW7      -0.021200
     22 C17         -8.5380    -1.8520    -0.2670 c3         1 GW7      -0.089100
     23 S1          -5.2480    -0.8330     0.5630 ss         1 GW7       0.065400
     24 C18         -4.5800     0.7260     0.0330 ca         1 GW7      -0.342000
     25 C19         -0.1610    -1.0630    -0.3830 ca         1 GW7      -0.108000
     26 C20          1.2430    -1.0940    -0.4100 ca         1 GW7       0.096000
     27 Cl1          2.0550    -2.6070    -0.8190 cl         1 GW7      -0.178000
     28 C21          6.3060     0.0300     1.0700 ca         1 GW7      -0.122000
     29 H2           9.3920    -0.4300    -0.3280 ha         1 GW7       0.133000
     30 H3           8.2660     0.7410    -2.2270 ha         1 GW7       0.120000
     31 H4           5.8930     1.4530    -2.0150 ha         1 GW7       0.118000
     32 H61          4.0300     1.4900     1.1590 h1         1 GW7       0.045700
     33 H62          4.0050     1.9490    -0.5590 h1         1 GW7       0.045700
     34 H8           1.8440     2.1700     0.4610 ha         1 GW7       0.122000
     35 H9          -0.6040     2.1990     0.5190 ha         1 GW7       0.138000
     36 H1          -2.6430    -0.8350     0.0350 hn         1 GW7       0.503000
     37 H12         -3.6560     4.1780    -1.1040 h5         1 GW7       0.048100
     38 H14         -7.7690     1.8380     0.0300 ha         1 GW7       0.221000
     39 H161        -7.8730    -1.5260     1.7640 hc         1 GW7       0.057200
     40 H162        -8.9240    -0.2620     1.1460 hc         1 GW7       0.057200
     41 H171        -8.7910    -1.2700    -1.1620 hc         1 GW7       0.040367
     42 H172        -7.7400    -2.5580    -0.5280 hc         1 GW7       0.040367
     43 H173        -9.4220    -2.4270     0.0310 hc         1 GW7       0.040367
     44 H19         -0.7170    -1.9670    -0.6150 ha         1 GW7       0.130000
     45 H21          5.7690    -0.1770     1.9930 ha         1 GW7       0.139000
@<TRIPOS>BOND
     1     1     2 1   
     2     2     3 ar  
     3     2    28 ar  
     4     3     4 ar  
     5     3    29 1   
     6     4     5 ar  
     7     4    30 1   
     8     5     6 ar  
     9     5    31 1   
    10     6     7 1   
    11     6    28 ar  
    12     7     8 1   
    13     7    32 1   
    14     7    33 1   
    15     8     9 1   
    16     9    10 ar  
    17     9    26 ar  
    18    10    11 ar  
    19    10    34 1   
    20    11    12 ar  
    21    11    35 1   
    22    12    13 1   
    23    12    25 ar  
    24    13    14 1   
    25    13    36 1   
    26    14    15 ar  
    27    14    24 ar  
    28    15    16 ar  
    29    16    17 ar  
    30    16    37 1   
    31    17    18 ar  
    32    18    19 1   
    33    18    24 ar  
    34    19    20 2   
    35    19    38 1   
    36    20    21 1   
    37    20    23 1   
    38    21    22 1   
    39    21    39 1   
    40    21    40 1   
    41    22    41 1   
    42    22    42 1   
    43    22    43 1   
    44    23    24 1   
    45    25    26 ar  
    46    25    44 1   
    47    26    27 1   
    48    28    45 1   
@<TRIPOS>SUBSTRUCTURE
     1 GW7         1 TEMP              0 ****  ****    0 ROOT
