@<TRIPOS>MOLECULE
GW7
   45    48     1     0     0
SMALL
abcg2


@<TRIPOS>ATOM
      1 F1           7.9910    -1.6050     1.2130 f          1 GW7      -0.178000
      2 C1           7.4330    -0.6120     0.5020 ca         1 GW7       0.167000
      3 C2           8.2110     0.0610    -0.4230 ca         1 GW7      -0.141000
      4 C3           7.6240     1.0840    -1.1520 ca         1 GW7      -0.087000
      5 C4           6.2890     1.4140    -0.9550 ca         1 GW7      -0.108000
      6 C5           5.5280     0.7270    -0.0170 ca         1 GW7      -0.069300
      7 C6           4.0880     1.0830     0.2040 c3         1 GW7       0.208900
      8 O1           3.3080    -0.0530    -0.1410 os         1 GW7      -0.323100
      9 C7           1.9760     0.0260    -0.0130 ca         1 GW7       0.139100
     10 C8           1.2730     1.1620     0.3770 ca         1 GW7      -0.180000
     11 C9          -0.1110     1.1500     0.4790 ca         1 GW7      -0.059000
     12 C10         -0.8290     0.0020     0.1710 ca         1 GW7       0.265000
     13 N1          -2.2260    -0.0760     0.2860 nu         1 GW7      -0.938900
     14 C11         -3.1240     0.8490    -0.1280 ca         1 GW7       0.428900
     15 N2          -2.7070     1.9680    -0.7050 nb         1 GW7      -0.260000
     16 C12         -3.6200     2.8520    -1.1020 ca         1 GW7       0.161900
     17 N3          -4.9270     2.7670    -1.0000 nb         1 GW7      -0.181000
     18 C13         -5.3720     1.6400    -0.4170 ca         1 GW7       0.166800
     19 C14         -6.7410     1.3010    -0.1820 cc         1 GW7      -0.299800
     20 C15         -6.8890     0.1000     0.4290 cd         1 GW7      -0.016600
     21 C16         -8.1570    -0.5940     0.8010 c3         1 GW7      -0.021200
     22 C17         -8.4180    -1.8400    -0.0440 c3         1 GW7      -0.089100
     23 S1          -5.3620    -0.6720     0.7470 ss         1 GW7       0.065400
     24 C18         -4.5050     0.6480     0.0380 ca         1 GW7      -0.342000
     25 C19         -0.1380    -1.1410    -0.2200 ca         1 GW7      -0.108000
     26 C20          1.2410    -1.1280    -0.2960 ca         1 GW7       0.096000
     27 CL1          2.0840    -2.5590    -0.7710 cl         1 GW7      -0.178000
     28 C21          6.1080    -0.3010     0.7230 ca         1 GW7      -0.122000
     29 H2           9.2490    -0.2090    -0.5690 ha         1 GW7       0.133000
     30 H3           8.2130     1.6220    -1.8820 ha         1 GW7       0.120000
     31 H4           5.8400     2.2110    -1.5340 ha         1 GW7       0.118000
     32 H61          3.9160     1.3530     1.2520 h1         1 GW7       0.045700
     33 H62          3.8140     1.9450    -0.4130 h1         1 GW7       0.045700
     34 H8           1.7940     2.0780     0.6220 ha         1 GW7       0.122000
     35 H9          -0.6160     2.0460     0.8060 ha         1 GW7       0.138000
     36 H1          -2.5880    -0.9770     0.5610 hn         1 GW7       0.503000
     37 H12         -3.2260     3.7490    -1.5680 h5         1 GW7       0.048100
     38 H14         -7.5710     1.9360    -0.4600 ha         1 GW7       0.221000
     39 H161        -8.1330    -0.8660     1.8590 hc         1 GW7       0.057200
     40 H162        -8.9760     0.1160     0.6790 hc         1 GW7       0.057200
     41 H171        -8.4730    -1.5890    -1.1030 hc         1 GW7       0.040367
     42 H172        -7.6330    -2.5850     0.0860 hc         1 GW7       0.040367
     43 H173        -9.3630    -2.3000     0.2450 hc         1 GW7       0.040367
     44 H19         -0.6780    -2.0460    -0.4660 ha         1 GW7       0.130000
     45 H21          5.5390    -0.8490     1.4640 ha         1 GW7       0.139000
@<TRIPOS>BOND
     1     1     2 1   
     2     2     3 ar  
     3     2    28 ar  
     4     3     4 ar  
     5     3    29 1   
     6     4     5 ar  
     7     4    30 1   
     8     5     6 ar  
     9     5    31 1   
    10     6     7 1   
    11     6    28 ar  
    12     7     8 1   
    13     7    32 1   
    14     7    33 1   
    15     8     9 1   
    16     9    10 ar  
    17     9    26 ar  
    18    10    11 ar  
    19    10    34 1   
    20    11    12 ar  
    21    11    35 1   
    22    12    13 1   
    23    12    25 ar  
    24    13    14 1   
    25    13    36 1   
    26    14    15 ar  
    27    14    24 ar  
    28    15    16 ar  
    29    16    17 ar  
    30    16    37 1   
    31    17    18 ar  
    32    18    19 1   
    33    18    24 ar  
    34    19    20 2   
    35    19    38 1   
    36    20    21 1   
    37    20    23 1   
    38    21    22 1   
    39    21    39 1   
    40    21    40 1   
    41    22    41 1   
    42    22    42 1   
    43    22    43 1   
    44    23    24 1   
    45    25    26 ar  
    46    25    44 1   
    47    26    27 1   
    48    28    45 1   
@<TRIPOS>SUBSTRUCTURE
     1 GW7         1 TEMP              0 ****  ****    0 ROOT
