@<TRIPOS>MOLECULE
GW8
   81    85     1     0     0
SMALL
No Charge or Current Charge


@<TRIPOS>ATOM
      1 N1           4.5370    -3.5290    -1.9130 nb         1 GW8      -0.259000
      2 C2           3.6100    -3.0930    -1.0420 ca         1 GW8       0.419900
      3 N3           2.3880    -3.6040    -0.8490 nb         1 GW8      -0.314000
      4 C4           2.0510    -4.6790    -1.5860 ca         1 GW8       0.427900
      5 C5           2.9570    -5.2240    -2.5120 ca         1 GW8      -0.330000
      6 C6           4.2060    -4.6050    -2.6470 ca         1 GW8       0.165900
      7 CAB          0.4780    -6.6210    -1.8110 c3         1 GW8       0.222100
      8 CAC         10.4330     2.5200     2.4080 c3         1 GW8      -0.342100
      9 OAD         -3.6930    -0.3030     0.0530 o          1 GW8      -0.601100
     10 OAF          9.5600     0.0480     2.7130 o          1 GW8      -0.514500
     11 OAG          7.9980     1.9690     3.2650 o          1 GW8      -0.514500
     12 CAH         -7.6110     1.3250     3.4070 ca         1 GW8      -0.086000
     13 CAJ         -6.6950     0.2850     3.1890 ca         1 GW8      -0.160000
     14 CAK         -7.7840     2.3250     2.4380 ca         1 GW8      -0.096000
     15 CAM          5.9370     0.9930     0.5770 ca         1 GW8      -0.050000
     16 CAN          7.4330    -0.8470     0.0520 ca         1 GW8      -0.050000
     17 CAO          4.8320     0.1590     0.3340 ca         1 GW8      -0.159500
     18 CAP          6.3240    -1.6760    -0.1910 ca         1 GW8      -0.159500
     19 CAQ         -2.0200    -4.2870     0.9510 ca         1 GW8      -0.131500
     20 CAR         -1.6790    -2.4870    -0.6390 ca         1 GW8      -0.131500
     21 CAS         -0.9810    -5.0180     0.3470 ca         1 GW8      -0.083500
     22 CAT         -0.6400    -3.2220    -1.2390 ca         1 GW8      -0.083500
     23 CAU         -6.1350     1.2310     1.0240 ca         1 GW8      -0.114000
     24 CAV         -5.9540     5.9890    -1.7360 c6         1 GW8       0.138800
     25 CAW         -4.2920     5.2470    -0.0960 c6         1 GW8       0.138800
     26 CAX         -6.4500     4.5280    -1.9070 c6         1 GW8       0.095000
     27 CAY         -4.7870     3.7790    -0.2340 c6         1 GW8       0.095000
     28 NBD         -5.0490    -0.8610     1.8380 ns         1 GW8      -0.162000
     29 NBE          3.8830    -1.9680    -0.2800 nu         1 GW8      -0.929900
     30 CBF         -4.0320    -1.0970     0.9230 c          1 GW8       0.667100
     31 CBG         -7.2620     3.3810     0.1990 c          1 GW8       0.615700
     32 CBH          7.2440     0.4930     0.4340 ca         1 GW8      -0.132300
     33 CBI         -2.3800    -3.0160     0.4670 ca         1 GW8      -0.019000
     34 CBJ          5.0150    -1.1750    -0.0640 ca         1 GW8       0.342000
     35 CBK         -5.9460     0.2290     2.0010 ca         1 GW8      -0.011000
     36 CBL         -7.0350     2.3020     1.2420 ca         1 GW8      -0.112600
     37 CBM         -0.2770    -4.4920    -0.7520 ca         1 GW8       0.273000
     38 NBP         -4.5190     6.0390    -1.3380 n3         1 GW8      -0.714600
     39 NBQ          0.7660    -5.2340    -1.3670 nh         1 GW8      -0.814100
     40 NBR         -6.2090     3.7030    -0.6880 n          1 GW8      -0.401800
     41 H5           2.7130    -6.0870    -3.1210 ha         1 GW8       0.133000
     42 H6           4.9510    -4.9710    -3.3530 h4         1 GW8       0.019100
     43 HAA         -4.5310     7.9780    -0.4480 h1         1 GW8       0.032033
     44 HAAA        -2.9320     7.4180    -0.9950 h1         1 GW8       0.032033
     45 HAAB        -4.1360     7.9560    -2.1840 h1         1 GW8       0.032033
     46 HAB          1.2290    -7.3170    -1.4140 h1         1 GW8       0.044367
     47 HABA        -0.5050    -6.9570    -1.4550 h1         1 GW8       0.044367
     48 HABB         0.4690    -6.6830    -2.9070 h1         1 GW8       0.044367
     49 HAC         10.0640     3.5030     2.0970 h1         1 GW8       0.101033
     50 HACA        10.8340     2.5530     3.4270 h1         1 GW8       0.101033
     51 HACB        11.1780     2.1340     1.7040 h1         1 GW8       0.101033
     52 HAH         -8.1900     1.3560     4.3280 ha         1 GW8       0.117000
     53 HAJ         -6.5700    -0.4830     3.9500 ha         1 GW8       0.108000
     54 HAK         -8.4980     3.1250     2.6200 ha         1 GW8       0.130000
     55 HAM          5.7750     2.0270     0.8780 ha         1 GW8       0.119500
     56 HAN          8.4380    -1.2500    -0.0510 ha         1 GW8       0.119500
     57 HAO          3.8280     0.5590     0.4470 ha         1 GW8       0.136000
     58 HAP          6.4940    -2.7130    -0.4590 ha         1 GW8       0.136000
     59 HAQ         -2.5460    -4.7150     1.8020 ha         1 GW8       0.127500
     60 HAR         -1.9210    -1.5140    -1.0530 ha         1 GW8       0.127500
     61 HAS         -0.7130    -5.9940     0.7430 ha         1 GW8       0.124000
     62 HAT         -0.1150    -2.8050    -2.0940 ha         1 GW8       0.124000
     63 HAU         -5.6090     1.1750     0.0760 ha         1 GW8       0.158000
     64 HAV         -6.1070     6.5260    -2.6840 h1         1 GW8       0.040200
     65 HAVA        -6.5770     6.4870    -0.9780 h1         1 GW8       0.040200
     66 HAW         -4.8190     5.7140     0.7500 h1         1 GW8       0.040200
     67 HAWA        -3.2230     5.2340     0.1590 h1         1 GW8       0.040200
     68 HAX         -7.5170     4.5320    -2.1720 h1         1 GW8       0.066200
     69 HAXA        -5.9160     4.0700    -2.7510 h1         1 GW8       0.066200
     70 HAY         -4.1530     3.2510    -0.9610 h1         1 GW8       0.066200
     71 HAYA        -4.6520     3.2870     0.7370 h1         1 GW8       0.066200
     72 HAZ          9.2990     1.0920     0.0790 h1         1 GW8       0.093700
     73 HAZA         8.2030     2.4390     0.4660 h1         1 GW8       0.093700
     74 HNBC        -3.8420    -2.8630     1.8940 hn         1 GW8       0.145000
     75 HNBD        -5.1810    -1.6020     2.5140 hn         1 GW8       0.147000
     76 HNBE         3.0430    -1.6050     0.1650 hn         1 GW8       0.512000
     77 CAZ          8.4470     1.3970     0.6980 c3         1 GW8      -0.211100
     78 NBC         -3.4420    -2.3370     1.1280 ns         1 GW8      -0.165000
     79 SBS          9.0420     1.3880     2.4100 s6         1 GW8       1.066000
     80 CAA         -4.0040     7.4210    -1.2340 c3         1 GW8       0.152100
     81 OAE         -8.3660     3.8990     0.0720 o          1 GW8      -0.597100
@<TRIPOS>BOND
     1     1     2 ar  
     2     1     6 ar  
     3     2     3 ar  
     4     2    29 1   
     5     3     4 ar  
     6     4     5 ar  
     7     4    39 1   
     8     5     6 ar  
     9     5    41 1   
    10     6    42 1   
    11     7    39 1   
    12     7    46 1   
    13     7    47 1   
    14     7    48 1   
    15     8    49 1   
    16     8    50 1   
    17     8    51 1   
    18     8    79 1   
    19     9    30 2   
    20    10    79 2   
    21    11    79 2   
    22    12    13 ar  
    23    12    14 ar  
    24    12    52 1   
    25    13    35 ar  
    26    13    53 1   
    27    14    36 ar  
    28    14    54 1   
    29    15    17 ar  
    30    15    32 ar  
    31    15    55 1   
    32    16    18 ar  
    33    16    32 ar  
    34    16    56 1   
    35    17    34 ar  
    36    17    57 1   
    37    18    34 ar  
    38    18    58 1   
    39    19    21 ar  
    40    19    33 ar  
    41    19    59 1   
    42    20    22 ar  
    43    20    33 ar  
    44    20    60 1   
    45    21    37 ar  
    46    21    61 1   
    47    22    37 ar  
    48    22    62 1   
    49    23    35 ar  
    50    23    36 ar  
    51    23    63 1   
    52    24    26 1   
    53    24    38 1   
    54    24    64 1   
    55    24    65 1   
    56    25    27 1   
    57    25    38 1   
    58    25    66 1   
    59    25    67 1   
    60    26    40 1   
    61    26    68 1   
    62    26    69 1   
    63    27    40 1   
    64    27    70 1   
    65    27    71 1   
    66    28    30 1   
    67    28    35 1   
    68    28    75 1   
    69    29    34 1   
    70    29    76 1   
    71    30    78 1   
    72    31    36 1   
    73    31    40 1   
    74    31    81 2   
    75    32    77 1   
    76    33    78 1   
    77    37    39 1   
    78    38    80 1   
    79    43    80 1   
    80    44    80 1   
    81    45    80 1   
    82    72    77 1   
    83    73    77 1   
    84    74    78 1   
    85    77    79 1   
@<TRIPOS>SUBSTRUCTURE
     1 GW8         1 TEMP              0 ****  ****    0 ROOT
