@<TRIPOS>MOLECULE
GW8
   81    85     1     0     0
SMALL
abcg2


@<TRIPOS>ATOM
      1 N1           4.3350    -3.7880    -0.9680 nb         1 GW8      -0.259000
      2 C2           3.1880    -3.2200    -0.6190 ca         1 GW8       0.419900
      3 N3           2.0170    -3.8300    -0.4620 nb         1 GW8      -0.314000
      4 C4           1.9630    -5.1400    -0.6770 ca         1 GW8       0.427900
      5 C5           3.1260    -5.8500    -1.0500 ca         1 GW8      -0.330000
      6 C6           4.2700    -5.1040    -1.1750 ca         1 GW8       0.165900
      7 CAB          0.6750    -7.2060    -0.6440 c3         1 GW8       0.222100
      8 CAC          8.7980     3.8720     0.9970 c3         1 GW8      -0.342100
      9 OAD         -3.5410    -0.9360    -0.3640 o          1 GW8      -0.601100
     10 OAF          8.4040     1.2940     1.4060 o          1 GW8      -0.514500
     11 OAG          6.6140     2.8980     2.1150 o          1 GW8      -0.514500
     12 CAH         -8.0000     1.3250     1.3480 ca         1 GW8      -0.086000
     13 CAJ         -7.3120     0.1270     1.3870 ca         1 GW8      -0.160000
     14 CAK         -7.4850     2.4140     0.6590 ca         1 GW8      -0.096000
     15 CAM          4.5890     1.4660    -0.1250 ca         1 GW8      -0.050000
     16 CAN          6.3290    -0.0230    -0.7910 ca         1 GW8      -0.050000
     17 CAO          3.6980     0.4110    -0.1050 ca         1 GW8      -0.159500
     18 CAP          5.4490    -1.0940    -0.7740 ca         1 GW8      -0.159500
     19 CAQ         -2.2680    -4.5400     1.2130 ca         1 GW8      -0.131500
     20 CAR         -2.0710    -3.4000    -0.8910 ca         1 GW8      -0.131500
     21 CAS         -1.1030    -5.2390     0.9460 ca         1 GW8      -0.083500
     22 CAT         -0.9080    -4.1050    -1.1500 ca         1 GW8      -0.083500
     23 CAU         -5.5540     1.0860     0.0570 ca         1 GW8      -0.114000
     24 CAV         -3.6550     6.1600    -0.5310 c6         1 GW8       0.138800
     25 CAW         -3.5100     4.8730     1.4700 c6         1 GW8       0.138800
     26 CAX         -3.8580     4.8910    -1.3390 c6         1 GW8       0.095000
     27 CAY         -3.7180     3.5860     0.6880 c6         1 GW8       0.095000
     28 NBD         -5.4680    -1.2610     0.8220 ns         1 GW8      -0.162000
     29 NBE          3.1380    -1.8750    -0.3770 nu         1 GW8      -0.929900
     30 CBF         -4.2620    -1.6530     0.3060 c          1 GW8       0.667100
     31 CBG         -5.7290     3.4390    -0.7740 c          1 GW8       0.615700
     32 CBH          5.9210     1.2680    -0.4780 ca         1 GW8      -0.132300
     33 CBI         -2.7600    -3.6040     0.3050 ca         1 GW8      -0.019000
     34 CBJ          4.1100    -0.8900    -0.4260 ca         1 GW8       0.342000
     35 CBK         -6.0820    -0.0130     0.7360 ca         1 GW8      -0.011000
     36 CBL         -6.2540     2.2890     0.0300 ca         1 GW8      -0.112600
     37 CBM         -0.4060    -5.0230    -0.2350 ca         1 GW8       0.273000
     38 NBP         -2.8690     5.8850     0.6550 n3         1 GW8      -0.714600
     39 NBQ          0.7700    -5.7620    -0.5130 nh         1 GW8      -0.814100
     40 NBR         -4.4700     3.8540    -0.5260 n          1 GW8      -0.401800
     41 H5           3.1390    -6.9120    -1.2350 ha         1 GW8       0.133000
     42 H6           5.1980    -5.5870    -1.4620 h4         1 GW8       0.019100
     43 HAA         -3.5140     7.5680     1.7980 h1         1 GW8       0.032033
     44 HAAA        -1.9630     6.8540     2.2660 h1         1 GW8       0.032033
     45 HAAB        -2.0780     7.8120     0.7890 h1         1 GW8       0.032033
     46 HAB          1.3510    -7.7180     0.0420 h1         1 GW8       0.044367
     47 HABA        -0.3390    -7.5160    -0.4100 h1         1 GW8       0.044367
     48 HABB         0.8970    -7.5340    -1.6610 h1         1 GW8       0.044367
     49 HAC          8.2580     4.7830     0.7520 h1         1 GW8       0.101033
     50 HACA         9.2980     3.9830     1.9590 h1         1 GW8       0.101033
     51 HACB         9.5280     3.6410     0.2250 h1         1 GW8       0.101033
     52 HAH         -8.9490     1.4080     1.8610 ha         1 GW8       0.117000
     53 HAJ         -7.7310    -0.7130     1.9290 ha         1 GW8       0.108000
     54 HAK         -8.0310     3.3480     0.6260 ha         1 GW8       0.130000
     55 HAM          4.2340     2.4580     0.1260 ha         1 GW8       0.119500
     56 HAN          7.3590    -0.2080    -1.0680 ha         1 GW8       0.119500
     57 HAO          2.6640     0.5940     0.1620 ha         1 GW8       0.136000
     58 HAP          5.7980    -2.0800    -1.0300 ha         1 GW8       0.136000
     59 HAQ         -2.7900    -4.7130     2.1470 ha         1 GW8       0.127500
     60 HAR         -2.4430    -2.7130    -1.6350 ha         1 GW8       0.127500
     61 HAS         -0.7310    -5.9510     1.6730 ha         1 GW8       0.124000
     62 HAT         -0.3920    -3.9420    -2.0870 ha         1 GW8       0.124000
     63 HAU         -4.6070     1.0090    -0.4540 ha         1 GW8       0.158000
     64 HAV         -3.1260     6.8900    -1.1490 h1         1 GW8       0.040200
     65 HAVA        -4.6390     6.5960    -0.2830 h1         1 GW8       0.040200
     66 HAW         -4.4860     5.2150     1.8590 h1         1 GW8       0.040200
     67 HAWA        -2.8790     4.6560     2.3360 h1         1 GW8       0.040200
     68 HAX         -4.4750     5.0920    -2.2110 h1         1 GW8       0.066200
     69 HAXA        -2.8890     4.5230    -1.6890 h1         1 GW8       0.066200
     70 HAY         -2.7510     3.1490     0.4210 h1         1 GW8       0.066200
     71 HAYA        -4.2410     2.8710     1.3170 h1         1 GW8       0.066200
     72 HAZ          7.7060     2.2520    -1.1950 h1         1 GW8       0.093700
     73 HAZA         6.4220     3.3620    -0.6820 h1         1 GW8       0.093700
     74 HNBC        -4.5240    -3.4130     1.3130 hn         1 GW8       0.145000
     75 HNBD        -5.9860    -1.9420     1.3560 hn         1 GW8       0.147000
     76 HNBE         2.2160    -1.5580    -0.1190 hn         1 GW8       0.512000
     77 CAZ          6.8940     2.4000    -0.4810 c3         1 GW8      -0.211100
     78 NBC         -3.9550    -2.9500     0.6210 ns         1 GW8      -0.165000
     79 SBS          7.6500     2.5220     1.1530 s6         1 GW8       1.066000
     80 CAA         -2.6020     7.0860     1.4130 c3         1 GW8       0.152100
     81 OAE         -6.4390     3.9300    -1.6430 o          1 GW8      -0.597100
@<TRIPOS>BOND
     1     1     2 ar  
     2     1     6 ar  
     3     2     3 ar  
     4     2    29 1   
     5     3     4 ar  
     6     4     5 ar  
     7     4    39 1   
     8     5     6 ar  
     9     5    41 1   
    10     6    42 1   
    11     7    39 1   
    12     7    46 1   
    13     7    47 1   
    14     7    48 1   
    15     8    49 1   
    16     8    50 1   
    17     8    51 1   
    18     8    79 1   
    19     9    30 2   
    20    10    79 2   
    21    11    79 2   
    22    12    13 ar  
    23    12    14 ar  
    24    12    52 1   
    25    13    35 ar  
    26    13    53 1   
    27    14    36 ar  
    28    14    54 1   
    29    15    17 ar  
    30    15    32 ar  
    31    15    55 1   
    32    16    18 ar  
    33    16    32 ar  
    34    16    56 1   
    35    17    34 ar  
    36    17    57 1   
    37    18    34 ar  
    38    18    58 1   
    39    19    21 ar  
    40    19    33 ar  
    41    19    59 1   
    42    20    22 ar  
    43    20    33 ar  
    44    20    60 1   
    45    21    37 ar  
    46    21    61 1   
    47    22    37 ar  
    48    22    62 1   
    49    23    35 ar  
    50    23    36 ar  
    51    23    63 1   
    52    24    26 1   
    53    24    38 1   
    54    24    64 1   
    55    24    65 1   
    56    25    27 1   
    57    25    38 1   
    58    25    66 1   
    59    25    67 1   
    60    26    40 1   
    61    26    68 1   
    62    26    69 1   
    63    27    40 1   
    64    27    70 1   
    65    27    71 1   
    66    28    30 1   
    67    28    35 1   
    68    28    75 1   
    69    29    34 1   
    70    29    76 1   
    71    30    78 1   
    72    31    36 1   
    73    31    40 1   
    74    31    81 2   
    75    32    77 1   
    76    33    78 1   
    77    37    39 1   
    78    38    80 1   
    79    43    80 1   
    80    44    80 1   
    81    45    80 1   
    82    72    77 1   
    83    73    77 1   
    84    74    78 1   
    85    77    79 1   
@<TRIPOS>SUBSTRUCTURE
     1 GW8         1 TEMP              0 ****  ****    0 ROOT
