@<TRIPOS>MOLECULE
GW9
   28    29     1     0     0
SMALL
abcg2


@<TRIPOS>ATOM
      1 CL           0.8190    -2.7840     1.5600 cl         1 GW9      -0.141000
      2 C9           1.5880    -1.4780     0.7480 ca         1 GW9       0.191000
      3 C10          2.9640    -1.3450     0.8660 ca         1 GW9      -0.123000
      4 C11          3.6110    -0.2950     0.2420 ca         1 GW9      -0.022000
      5 C12          2.8630     0.6180    -0.4820 ca         1 GW9      -0.187200
      6 N2           3.5340     1.7270    -1.1430 no         1 GW9       0.697200
      7 O3           4.7330     1.8070    -1.0320 o          1 GW9      -0.391500
      8 O2           2.8560     2.5070    -1.7680 o          1 GW9      -0.391500
      9 C13          1.4870     0.5030    -0.5920 ca         1 GW9      -0.021000
     10 C8           0.8370    -0.5560     0.0220 ca         1 GW9      -0.164600
     11 C1          -0.6420    -0.7250    -0.1750 c          1 GW9       0.624700
     12 O1          -1.0940    -1.7400    -0.6650 o          1 GW9      -0.548100
     13 N1          -1.3600     0.3470     0.2240 ns         1 GW9      -0.138000
     14 C2          -2.7430     0.5670     0.1420 ca         1 GW9      -0.027000
     15 C7          -3.6450    -0.3030    -0.4700 ca         1 GW9      -0.145000
     16 C6          -4.9950     0.0220    -0.4970 ca         1 GW9      -0.082500
     17 C5          -5.4660     1.1940     0.0730 ca         1 GW9      -0.131000
     18 C4          -4.5650     2.0580     0.6820 ca         1 GW9      -0.082500
     19 C3          -3.2160     1.7490     0.7170 ca         1 GW9      -0.145000
     20 H10          3.5320    -2.0600     1.4430 ha         1 GW9       0.148000
     21 H11          4.6840    -0.2020     0.3330 ha         1 GW9       0.159000
     22 H13          0.9170     1.2220    -1.1640 ha         1 GW9       0.161000
     23 HN1         -0.8450     1.0820     0.6850 hn         1 GW9       0.155000
     24 H7          -3.3150    -1.2230    -0.9230 ha         1 GW9       0.128000
     25 H6          -5.6840    -0.6620    -0.9760 ha         1 GW9       0.116000
     26 H5          -6.5210     1.4340     0.0440 ha         1 GW9       0.117000
     27 H4          -4.9090     2.9790     1.1330 ha         1 GW9       0.116000
     28 H3          -2.5220     2.4300     1.1950 ha         1 GW9       0.128000
@<TRIPOS>BOND
     1     1     2 1   
     2     2     3 ar  
     3     2    10 ar  
     4     3     4 ar  
     5     3    20 1   
     6     4     5 ar  
     7     4    21 1   
     8     5     6 1   
     9     5     9 ar  
    10     6     7 1   
    11     6     8 1   
    12     9    10 ar  
    13     9    22 1   
    14    10    11 1   
    15    11    12 2   
    16    11    13 1   
    17    13    14 1   
    18    13    23 1   
    19    14    15 ar  
    20    14    19 ar  
    21    15    16 ar  
    22    15    24 1   
    23    16    17 ar  
    24    16    25 1   
    25    17    18 ar  
    26    17    26 1   
    27    18    19 ar  
    28    18    27 1   
    29    19    28 1   
@<TRIPOS>SUBSTRUCTURE
     1 GW9         1 TEMP              0 ****  ****    0 ROOT
