@<TRIPOS>MOLECULE
GW9
   28    29     1     0     0
SMALL
No Charge or Current Charge


@<TRIPOS>ATOM
      1 Cl           1.0890    -3.3380     0.9320 cl         1 GW9      -0.141000
      2 C9           1.7050    -1.7620     0.4270 ca         1 GW9       0.191000
      3 C10          3.0940    -1.5740     0.5040 ca         1 GW9      -0.123000
      4 C11          3.6740    -0.3420     0.1730 ca         1 GW9      -0.022000
      5 C12          2.8590     0.7320    -0.2430 ca         1 GW9      -0.187200
      6 N2           3.4740     2.0520    -0.6030 no         1 GW9       0.697200
      7 O3           4.7060     2.1610    -0.5360 o          1 GW9      -0.391500
      8 O2           2.7230     2.9730    -0.9480 o          1 GW9      -0.391500
      9 C13          1.4580     0.5460    -0.3210 ca         1 GW9      -0.021000
     10 C8           0.8620    -0.6990     0.0110 ca         1 GW9      -0.164600
     11 C1          -0.6410    -0.8680    -0.0960 c          1 GW9       0.624700
     12 O1          -1.1580    -1.9380    -0.3930 o          1 GW9      -0.548100
     13 N1          -1.3740     0.3000     0.0910 ns         1 GW9      -0.138000
     14 C2          -2.7710     0.5740     0.0610 ca         1 GW9      -0.027000
     15 C7          -3.7650    -0.4260    -0.0280 ca         1 GW9      -0.145000
     16 C6          -5.1270    -0.0760    -0.0470 ca         1 GW9      -0.082500
     17 C5          -5.5100     1.2730     0.0270 ca         1 GW9      -0.131000
     18 C4          -4.5300     2.2730     0.1220 ca         1 GW9      -0.082500
     19 C3          -3.1690     1.9230     0.1410 ca         1 GW9      -0.145000
     20 H10          3.7270    -2.3940     0.8340 ha         1 GW9       0.148000
     21 H11          4.7560    -0.2320     0.2450 ha         1 GW9       0.159000
     22 H13          0.8360     1.3700    -0.6670 ha         1 GW9       0.161000
     23 HN1         -0.8100     1.1080     0.3130 hn         1 GW9       0.155000
     24 H7          -3.5080    -1.4800    -0.0750 ha         1 GW9       0.128000
     25 H6          -5.8860    -0.8520    -0.1160 ha         1 GW9       0.116000
     26 H5          -6.5640     1.5410     0.0120 ha         1 GW9       0.117000
     27 H4          -4.8250     3.3190     0.1820 ha         1 GW9       0.116000
     28 H3          -2.4200     2.7090     0.2160 ha         1 GW9       0.128000
@<TRIPOS>BOND
     1     1     2 1   
     2     2     3 ar  
     3     2    10 ar  
     4     3     4 ar  
     5     3    20 1   
     6     4     5 ar  
     7     4    21 1   
     8     5     6 1   
     9     5     9 ar  
    10     6     7 1   
    11     6     8 1   
    12     9    10 ar  
    13     9    22 1   
    14    10    11 1   
    15    11    12 2   
    16    11    13 1   
    17    13    14 1   
    18    13    23 1   
    19    14    15 ar  
    20    14    19 ar  
    21    15    16 ar  
    22    15    24 1   
    23    16    17 ar  
    24    16    25 1   
    25    17    18 ar  
    26    17    26 1   
    27    18    19 ar  
    28    18    27 1   
    29    19    28 1   
@<TRIPOS>SUBSTRUCTURE
     1 GW9         1 TEMP              0 ****  ****    0 ROOT
