@<TRIPOS>MOLECULE
GWA
   30    30     1     0     0
SMALL
abcg2


@<TRIPOS>ATOM
      1 N1           3.4730     0.0830    -0.0570 ns         1 GWA      -0.147000
      2 C4           2.2680    -1.9620     0.0960 ca         1 GWA      -0.197000
      3 C5           1.0830    -2.6700     0.1290 ca         1 GWA      -0.056000
      4 C6          -0.1510    -2.0390     0.0500 ca         1 GWA      -0.159000
      5 C7          -0.1810    -0.6500    -0.0630 ca         1 GWA       0.012000
      6 C8           1.0110     0.0800    -0.0970 ca         1 GWA      -0.198000
      7 C10         -3.6210     0.8610    -0.2030 c3         1 GWA       0.072600
      8 C2           3.7510     1.4100    -0.1410 c          1 GWA       0.610100
      9 O1           2.9000     2.2810    -0.1810 o          1 GWA      -0.587100
     10 C3           2.2380    -0.5690    -0.0210 ca         1 GWA       0.008000
     11 C9          -2.6490    -0.3000    -0.0720 c          1 GWA       0.607100
     12 O2          -3.0160    -1.4450     0.0900 o          1 GWA      -0.544100
     13 O3          -4.9190     0.3660    -0.1670 os         1 GWA      -0.416000
     14 C11         -5.8820     1.3900    -0.2230 c3         1 GWA       0.141900
     15 H1           4.2690    -0.5350    -0.0190 hn         1 GWA       0.151000
     16 H2           3.2150    -2.4830     0.1600 ha         1 GWA       0.110000
     17 H3           1.1160    -3.7480     0.2160 ha         1 GWA       0.115000
     18 H4          -1.0540    -2.6250     0.0750 ha         1 GWA       0.151000
     19 H5           0.9680     1.1550    -0.1810 ha         1 GWA       0.144000
     20 H6          -3.4300     1.5750     0.6140 h1         1 GWA       0.038200
     21 H7          -3.4110     1.4010    -1.1390 h1         1 GWA       0.038200
     22 H8           5.8670     0.9000     0.0710 hc         1 GWA       0.063700
     23 H9           5.4730     2.0180    -1.2340 hc         1 GWA       0.063700
     24 H10          5.4430     2.5800     0.4310 hc         1 GWA       0.063700
     25 H11         -1.2110     1.0930    -0.2820 hn         1 GWA       0.152000
     26 H12         -5.8100     1.9720    -1.1490 h1         1 GWA       0.033033
     27 H13         -6.8650     0.9240    -0.1840 h1         1 GWA       0.033033
     28 H14         -5.7900     2.0840     0.6210 h1         1 GWA       0.033033
     29 N2          -1.3550     0.1020    -0.1570 ns         1 GWA      -0.154000
     30 C1           5.2230     1.7300    -0.2120 c3         1 GWA      -0.182100
@<TRIPOS>BOND
     1     1     8 1   
     2     1    10 1   
     3     1    15 1   
     4     2     3 ar  
     5     2    10 ar  
     6     2    16 1   
     7     3     4 ar  
     8     3    17 1   
     9     4     5 ar  
    10     4    18 1   
    11     5     6 ar  
    12     5    29 1   
    13     6    10 ar  
    14     6    19 1   
    15     7    11 1   
    16     7    13 1   
    17     7    20 1   
    18     7    21 1   
    19     8     9 2   
    20     8    30 1   
    21    11    12 2   
    22    11    29 1   
    23    13    14 1   
    24    14    26 1   
    25    14    27 1   
    26    14    28 1   
    27    22    30 1   
    28    23    30 1   
    29    24    30 1   
    30    25    29 1   
@<TRIPOS>SUBSTRUCTURE
     1 GWA         1 TEMP              0 ****  ****    0 ROOT
