@<TRIPOS>MOLECULE
GWA
   30    30     1     0     0
SMALL
No Charge or Current Charge


@<TRIPOS>ATOM
      1 N1           3.5250     0.1340    -0.0890 ns         1 GWA      -0.147000
      2 C4           2.3390    -1.9670     0.0130 ca         1 GWA      -0.197000
      3 C5           1.1590    -2.7250     0.0450 ca         1 GWA      -0.056000
      4 C6          -0.0900    -2.0860     0.0070 ca         1 GWA      -0.159000
      5 C7          -0.1670    -0.6790    -0.0660 ca         1 GWA       0.012000
      6 C8           1.0260     0.0690    -0.0980 ca         1 GWA      -0.198000
      7 C10         -3.7180     0.8270    -0.1600 c3         1 GWA       0.072600
      8 C2           3.8400     1.4850    -0.1560 c          1 GWA       0.610100
      9 O1           3.0190     2.3940    -0.2060 o          1 GWA      -0.587100
     10 C3           2.2870    -0.5650    -0.0590 ca         1 GWA       0.008000
     11 C9          -2.7220    -0.3590    -0.0920 c          1 GWA       0.607100
     12 O2          -3.0850    -1.5310    -0.0290 o          1 GWA      -0.544100
     13 O3          -5.1050     0.4070    -0.1410 os         1 GWA      -0.416000
     14 C11         -6.0570     1.4820    -0.2040 c3         1 GWA       0.141900
     15 H1           4.3330    -0.4730    -0.0540 hn         1 GWA       0.151000
     16 H2           3.2990    -2.4770     0.0440 ha         1 GWA       0.110000
     17 H3           1.2120    -3.8110     0.1010 ha         1 GWA       0.115000
     18 H4          -0.9820    -2.7050     0.0330 ha         1 GWA       0.151000
     19 H5           0.9520     1.1500    -0.1540 ha         1 GWA       0.144000
     20 H6          -3.5060     1.4860     0.6920 h1         1 GWA       0.038200
     21 H7          -3.5000     1.3890    -1.0770 h1         1 GWA       0.038200
     22 H8           5.7960     1.3050     0.7170 hc         1 GWA       0.063700
     23 H9           5.8040     1.2180    -0.9870 hc         1 GWA       0.063700
     24 H10          5.5650     2.8430    -0.2160 hc         1 GWA       0.063700
     25 H11         -1.2670     1.0460    -0.1630 hn         1 GWA       0.152000
     26 H12         -5.9320     2.0620    -1.1270 h1         1 GWA       0.033033
     27 H13         -7.0810     1.0860    -0.1850 h1         1 GWA       0.033033
     28 H14         -5.9380     2.1590     0.6520 h1         1 GWA       0.033033
     29 N2          -1.3920     0.0440    -0.1090 ns         1 GWA      -0.154000
     30 C1           5.3390     1.7720    -0.1630 c3         1 GWA      -0.182100
@<TRIPOS>BOND
     1     1     8 1   
     2     1    10 1   
     3     1    15 1   
     4     2     3 ar  
     5     2    10 ar  
     6     2    16 1   
     7     3     4 ar  
     8     3    17 1   
     9     4     5 ar  
    10     4    18 1   
    11     5     6 ar  
    12     5    29 1   
    13     6    10 ar  
    14     6    19 1   
    15     7    11 1   
    16     7    13 1   
    17     7    20 1   
    18     7    21 1   
    19     8     9 2   
    20     8    30 1   
    21    11    12 2   
    22    11    29 1   
    23    13    14 1   
    24    14    26 1   
    25    14    27 1   
    26    14    28 1   
    27    22    30 1   
    28    23    30 1   
    29    24    30 1   
    30    25    29 1   
@<TRIPOS>SUBSTRUCTURE
     1 GWA         1 TEMP              0 ****  ****    0 ROOT
