@<TRIPOS>MOLECULE
GWC
   35    37     1     0     0
SMALL
No Charge or Current Charge


@<TRIPOS>ATOM
      1 C12         19.0310    67.6210    42.8420 c3         1 GWC       0.212100
      2 C13         17.8920    65.5420    43.7190 ca         1 GWC       0.226000
      3 C01         13.6530    67.3120    42.4780 ca         1 GWC      -0.181000
      4 C02         13.0360    67.1510    41.2300 ca         1 GWC      -0.052000
      5 C03         13.8100    66.8030    40.1150 ca         1 GWC      -0.120000
      6 C04         15.1970    66.6030    40.2320 ca         1 GWC       0.075000
      7 C05         15.8260    66.7480    41.4970 ca         1 GWC      -0.211000
      8 C06         15.0350    67.1170    42.6170 ca         1 GWC       0.232000
      9 C08         17.2360    66.1030    39.2960 ca         1 GWC       0.276000
     10 C10         17.2290    66.5200    41.5450 ca         1 GWC       0.426900
     11 C14         17.2130    64.3310    43.4470 ca         1 GWC      -0.076000
     12 C15         17.0890    63.3330    44.4300 ca         1 GWC      -0.160500
     13 C16         17.6380    63.5180    45.7060 ca         1 GWC       0.142100
     14 C17         18.3180    64.7190    45.9970 ca         1 GWC      -0.160500
     15 C18         18.4410    65.7170    45.0110 ca         1 GWC      -0.076000
     16 C20         18.0100    62.5980    47.9660 c3         1 GWC       0.147900
     17 N07         15.9140    66.2800    39.1380 nb         1 GWC      -0.197000
     18 N09         17.9280    66.2030    40.4400 nb         1 GWC      -0.277000
     19 N11         18.0080    66.5520    42.7190 nh         1 GWC      -0.777100
     20 O19         17.4840    62.5050    46.6300 os         1 GWC      -0.338100
     21 Cl1         18.1540    65.6860    37.8580 cl         1 GWC      -0.135000
     22 H1          18.7610    68.3260    43.6400 h1         1 GWC       0.050700
     23 H2          20.0180    67.1900    43.0560 h1         1 GWC       0.050700
     24 H3          19.1170    68.1930    41.9090 h1         1 GWC       0.050700
     25 H4          13.0600    67.5940    43.3440 ha         1 GWC       0.136000
     26 H5          11.9630    67.3040    41.1260 ha         1 GWC       0.123000
     27 H6          13.3280    66.6880    39.1460 ha         1 GWC       0.142000
     28 H7          16.7810    64.1490    42.4680 ha         1 GWC       0.125000
     29 H8          16.5640    62.4090    44.2000 ha         1 GWC       0.127500
     30 H9          18.7530    64.8980    46.9750 ha         1 GWC       0.127500
     31 H10         18.9610    66.6330    45.2710 ha         1 GWC       0.125000
     32 H11         17.7760    61.6860    48.5310 h1         1 GWC       0.042700
     33 H12         19.1010    62.7170    47.9490 h1         1 GWC       0.042700
     34 H13         17.5700    63.4500    48.5000 h1         1 GWC       0.042700
     35 F22         15.5670    67.3210    43.8430 f          1 GWC      -0.162000
@<TRIPOS>BOND
     1     1    19 1   
     2     1    22 1   
     3     1    23 1   
     4     1    24 1   
     5     2    11 ar  
     6     2    15 ar  
     7     2    19 1   
     8     3     4 ar  
     9     3     8 ar  
    10     3    25 1   
    11     4     5 ar  
    12     4    26 1   
    13     5     6 ar  
    14     5    27 1   
    15     6     7 ar  
    16     6    17 ar  
    17     7     8 ar  
    18     7    10 ar  
    19     8    35 1   
    20     9    17 ar  
    21     9    18 ar  
    22     9    21 1   
    23    10    18 ar  
    24    10    19 1   
    25    11    12 ar  
    26    11    28 1   
    27    12    13 ar  
    28    12    29 1   
    29    13    14 ar  
    30    13    20 1   
    31    14    15 ar  
    32    14    30 1   
    33    15    31 1   
    34    16    20 1   
    35    16    32 1   
    36    16    33 1   
    37    16    34 1   
@<TRIPOS>SUBSTRUCTURE
     1 GWC         1 TEMP              0 ****  ****    0 ROOT
