@<TRIPOS>MOLECULE
GWC
   35    37     1     0     0
SMALL
bcc


@<TRIPOS>ATOM
      1 C12         19.5900    66.9240    42.4440 c3         1 GWC       0.212100
      2 C13         17.8920    65.6640    43.6570 ca         1 GWC       0.087600
      3 C01         13.7550    66.6770    42.7870 ca         1 GWC      -0.199000
      4 C02         13.1170    66.4490    41.5620 ca         1 GWC      -0.070000
      5 C03         13.8320    66.4230    40.3930 ca         1 GWC      -0.203300
      6 C04         15.2270    66.5920    40.4190 ca         1 GWC       0.468600
      7 C05         15.9090    66.7060    41.6570 ca         1 GWC      -0.341600
      8 C06         15.1150    66.8190    42.8120 ca         1 GWC       0.196900
      9 C08         17.1480    66.9340    39.3220 ca         1 GWC       0.802000
     10 C10         17.3490    66.7600    41.5720 ca         1 GWC       0.755200
     11 C14         17.3940    64.4030    43.3410 ca         1 GWC      -0.094000
     12 C15         17.1650    63.4690    44.3330 ca         1 GWC      -0.178500
     13 C16         17.4580    63.7660    45.6650 ca         1 GWC       0.142100
     14 C17         17.9730    65.0220    45.9820 ca         1 GWC      -0.178500
     15 C18         18.1790    65.9590    44.9810 ca         1 GWC      -0.094000
     16 C20         17.5200    63.0340    47.9200 c3         1 GWC       0.124700
     17 N07         15.8850    66.6880    39.2320 nb         1 GWC      -0.723000
     18 N09         17.9210    66.9610    40.3970 nb         1 GWC      -0.803000
     19 N11         18.1770    66.6100    42.6330 nh         1 GWC      -0.638700
     20 O19         17.2230    62.7910    46.5600 os         1 GWC      -0.314900
     21 CL1         17.9850    67.2120    37.8280 cl         1 GWC      -0.135000
     22 H1          20.0640    66.9870    43.4190 h1         1 GWC       0.050700
     23 H2          20.1010    66.1590    41.8560 h1         1 GWC       0.050700
     24 H3          19.7030    67.8830    41.9460 h1         1 GWC       0.050700
     25 H4          13.1870    66.7690    43.7020 ha         1 GWC       0.154000
     26 H5          12.0420    66.3300    41.5430 ha         1 GWC       0.141000
     27 H6          13.3430    66.3050    39.4350 ha         1 GWC       0.160000
     28 H7          17.1900    64.1350    42.3110 ha         1 GWC       0.143000
     29 H8          16.7770    62.4920    44.0760 ha         1 GWC       0.145500
     30 H9          18.2130    65.2930    47.0020 ha         1 GWC       0.145500
     31 H10         18.5640    66.9360    45.2470 ha         1 GWC       0.143000
     32 H11         17.2590    62.1280    48.4610 h1         1 GWC       0.042700
     33 H12         18.5810    63.2440    48.0750 h1         1 GWC       0.042700
     34 H13         16.9340    63.8650    48.3240 h1         1 GWC       0.042700
     35 F22         15.6880    67.1300    43.9760 f          1 GWC      -0.126900
@<TRIPOS>BOND
     1     1    19 1   
     2     1    22 1   
     3     1    23 1   
     4     1    24 1   
     5     2    11 ar  
     6     2    15 ar  
     7     2    19 1   
     8     3     4 ar  
     9     3     8 ar  
    10     3    25 1   
    11     4     5 ar  
    12     4    26 1   
    13     5     6 ar  
    14     5    27 1   
    15     6     7 ar  
    16     6    17 ar  
    17     7     8 ar  
    18     7    10 ar  
    19     8    35 1   
    20     9    17 ar  
    21     9    18 ar  
    22     9    21 1   
    23    10    18 ar  
    24    10    19 1   
    25    11    12 ar  
    26    11    28 1   
    27    12    13 ar  
    28    12    29 1   
    29    13    14 ar  
    30    13    20 1   
    31    14    15 ar  
    32    14    30 1   
    33    15    31 1   
    34    16    20 1   
    35    16    32 1   
    36    16    33 1   
    37    16    34 1   
@<TRIPOS>SUBSTRUCTURE
     1 GWC         1 TEMP              0 ****  ****    0 ROOT
