@<TRIPOS>MOLECULE
GWE
   55    57     1     0     0
SMALL
bcc


@<TRIPOS>ATOM
      1 C1          -3.2790     2.0150     0.5030 ca         1 GWE       0.157100
      2 C2          -4.0810     0.9010     0.7650 ca         1 GWE      -0.183600
      3 C3          -5.4060     0.8870     0.3430 ca         1 GWE      -0.052000
      4 C4          -5.8960     1.9480    -0.3960 ca         1 GWE      -0.005600
      5 C5          -5.0900     3.0360    -0.6980 ca         1 GWE      -0.073000
      6 C6          -3.7830     3.0750    -0.2410 ca         1 GWE      -0.190000
      7 CL1         -7.5330     1.9150    -0.9570 cl         1 GWE      -0.093400
      8 C7          -3.5430    -0.2770     1.5040 c          1 GWE       0.609300
      9 O1          -4.1730    -0.7960     2.3970 o          1 GWE      -0.494100
     10 C8          -2.2260    -0.8270     1.0760 ca         1 GWE      -0.126600
     11 C9          -1.4380    -1.4880     2.0120 ca         1 GWE      -0.076000
     12 C10         -0.2130    -1.9750     1.6120 ca         1 GWE       0.134900
     13 C11          0.2470    -1.8600     0.3150 ca         1 GWE      -0.102000
     14 C12         -0.5640    -1.2250    -0.6130 ca         1 GWE      -0.189300
     15 C13         -1.7960    -0.7070    -0.2400 ca         1 GWE      -0.076000
     16 C14         -0.1290    -1.1190    -2.0430 c3         1 GWE       0.722200
     17 F1           1.1930    -1.2390    -2.1820 f          1 GWE      -0.234300
     18 F2          -0.6940    -2.0670    -2.8000 f          1 GWE      -0.234300
     19 F3          -0.4760     0.0600    -2.5800 f          1 GWE      -0.234300
     20 F4           0.5700    -2.5750     2.5140 f          1 GWE      -0.129900
     21 O2          -2.0480     2.0140     1.0500 os         1 GWE      -0.298900
     22 C15         -0.9650     2.4880     0.2820 c3         1 GWE       0.051400
     23 C16          0.2690     1.7360     0.7690 c          1 GWE       0.666100
     24 O3           0.3450     1.3170     1.9040 o          1 GWE      -0.544100
     25 N1           1.2280     1.6210    -0.1810 ns         1 GWE      -0.484500
     26 C17          2.4950     1.0270    -0.0940 cc         1 GWE       0.267200
     27 C18          3.3580     1.1960    -1.1880 cc         1 GWE      -0.220800
     28 C19          4.6110     0.5950    -1.1350 cd         1 GWE      -0.052000
     29 C20          5.0260    -0.1540    -0.0470 cd         1 GWE      -0.624000
     30 C21          4.1610    -0.3080     1.0280 cd         1 GWE      -0.043000
     31 C22          2.9040     0.2740     1.0090 cc         1 GWE      -0.256600
     32 C23          2.9530     1.9910    -2.3950 c3         1 GWE      -0.051900
     33 S1           6.7740    -0.8760    -0.2190 s6         1 GWE       1.158400
     34 N2           8.4380    -1.6990    -0.0190 n8         1 GWE      -0.848400
     35 O4           6.1230    -2.4010    -0.2070 oh         1 GWE      -0.553200
     36 O5           7.0660    -0.2330     1.2600 oh         1 GWE      -0.553200
     37 H3          -6.0330     0.0320     0.5600 ha         1 GWE       0.165000
     38 H5          -5.4800     3.8630    -1.2760 ha         1 GWE       0.152000
     39 H6          -3.1730     3.9430    -0.4550 ha         1 GWE       0.145000
     40 H9          -1.7570    -1.5890     3.0410 ha         1 GWE       0.175000
     41 H11          1.2190    -2.2570     0.0550 ha         1 GWE       0.168000
     42 H13         -2.4270    -0.2160    -0.9700 ha         1 GWE       0.151000
     43 H15         -1.1320     2.3220    -0.7870 h1         1 GWE       0.058200
     44 H15A        -0.8110     3.5630     0.4300 h1         1 GWE       0.058200
     45 HN1          1.0190     2.0600    -1.0640 hn         1 GWE       0.319500
     46 H19          5.2820     0.7230    -1.9800 ha         1 GWE       0.117000
     47 H21          4.4520    -0.8830     1.8990 ha         1 GWE       0.135000
     48 H22          2.2470     0.1400     1.8530 ha         1 GWE       0.162000
     49 H23          2.6680     3.0150    -2.1410 hc         1 GWE       0.040367
     50 H23A         3.7720     2.0530    -3.1070 hc         1 GWE       0.040367
     51 H23B         2.1090     1.5370    -2.9220 hc         1 GWE       0.040367
     52 HNS          8.4080    -2.5780     0.4910 hn         1 GWE       0.197200
     53 HNSA         8.7650    -1.9200    -0.9550 hn         1 GWE       0.197200
     54 H18          5.1560    -2.3320    -0.2180 ho         1 GWE       0.469500
     55 H191         8.0130    -0.4190     1.4040 ho         1 GWE       0.469500
@<TRIPOS>BOND
     1     1     2 ar  
     2     1     6 ar  
     3     1    21 1   
     4     2     3 ar  
     5     2     8 1   
     6     3     4 ar  
     7     3    37 1   
     8     4     5 ar  
     9     4     7 1   
    10     5     6 ar  
    11     5    38 1   
    12     6    39 1   
    13     8     9 2   
    14     8    10 1   
    15    10    11 ar  
    16    10    15 ar  
    17    11    12 ar  
    18    11    40 1   
    19    12    13 ar  
    20    12    20 1   
    21    13    14 ar  
    22    13    41 1   
    23    14    15 ar  
    24    14    16 1   
    25    15    42 1   
    26    16    17 1   
    27    16    18 1   
    28    16    19 1   
    29    21    22 1   
    30    22    23 1   
    31    22    43 1   
    32    22    44 1   
    33    23    24 2   
    34    23    25 1   
    35    25    26 2   
    36    25    45 1   
    37    26    27 1   
    38    26    31 1   
    39    27    28 2   
    40    27    32 1   
    41    28    29 1   
    42    28    46 1   
    43    29    30 1   
    44    29    33 2   
    45    30    31 2   
    46    30    47 1   
    47    31    48 1   
    48    32    49 1   
    49    32    50 1   
    50    32    51 1   
    51    33    34 2   
    52    33    35 1   
    53    33    36 1   
    54    34    52 1   
    55    34    53 1   
    56    35    54 1   
    57    36    55 1   
@<TRIPOS>SUBSTRUCTURE
     1 GWE         1 TEMP              0 ****  ****    0 ROOT
