@<TRIPOS>MOLECULE
GWE
   55    57     1     0     0
SMALL
No Charge or Current Charge


@<TRIPOS>ATOM
      1 C1          -3.2760     1.8850     0.5050 ca         1 GWE       0.157100
      2 C2          -4.1120     0.7800     0.7750 ca         1 GWE      -0.183600
      3 C3          -5.4540     0.8060     0.3370 ca         1 GWE      -0.034000
      4 C4          -5.9400     1.9040    -0.3920 ca         1 GWE       0.086000
      5 C5          -5.0970     2.9880    -0.6820 ca         1 GWE      -0.055000
      6 C6          -3.7660     2.9820    -0.2310 ca         1 GWE      -0.172000
      7 Cl1         -7.6100     1.9180    -0.9460 cl         1 GWE      -0.185000
      8 C7          -3.5950    -0.4200     1.5270 c          1 GWE       0.609300
      9 O1          -4.2790    -0.9420     2.4000 o          1 GWE      -0.494100
     10 C8          -2.2320    -0.9770     1.1760 ca         1 GWE      -0.126600
     11 C9          -1.4490    -1.6030     2.1690 ca         1 GWE      -0.058000
     12 C10         -0.1680    -2.0820     1.8580 ca         1 GWE       0.170000
     13 C11          0.3460    -1.9540     0.5600 ca         1 GWE      -0.084000
     14 C12         -0.4260    -1.3450    -0.4540 ca         1 GWE      -0.189300
     15 C13         -1.7190    -0.8730    -0.1380 ca         1 GWE      -0.058000
     16 C14          0.1090    -1.2000    -1.8840 c3         1 GWE       0.358300
     17 F1           1.4460    -1.3880    -1.9680 f          1 GWE      -0.113000
     18 F2          -0.4670    -2.0950    -2.7160 f          1 GWE      -0.113000
     19 F3          -0.1410     0.0290    -2.3900 f          1 GWE      -0.113000
     20 F4           0.5800    -2.6680     2.8190 f          1 GWE      -0.165000
     21 O2          -1.9930     1.8800     0.9970 os         1 GWE      -0.322100
     22 C15         -0.8940     2.4540     0.2580 c3         1 GWE       0.074600
     23 C16          0.4590     1.9120     0.7750 c          1 GWE       0.599100
     24 O3           0.6100     1.5240     1.9270 o          1 GWE      -0.544100
     25 N1           1.4440     1.8560    -0.1950 ns         1 GWE      -0.417500
     26 C17          2.6790     1.2150    -0.2160 cc         1 GWE       0.267200
     27 C18          3.5100     1.4080    -1.3810 cc         1 GWE      -0.220800
     28 C19          4.7380     0.7780    -1.4560 cd         1 GWE      -0.102000
     29 C20          5.1930    -0.0790    -0.3890 cd         1 GWE      -0.624000
     30 C21          4.3590    -0.2740     0.7910 cd         1 GWE      -0.093000
     31 C22          3.1430     0.3610     0.8400 cc         1 GWE      -0.306600
     32 C23          3.0230     2.2960    -2.5080 c3         1 GWE      -0.051900
     33 S1           6.8200    -0.8610    -0.6340 s6         1 GWE       1.158400
     34 N2           7.3720    -2.0170     0.4030 n8         1 GWE      -0.949000
     35 O4           5.8280    -2.0830    -0.5280 oh         1 GWE      -0.592200
     36 O5           7.0840    -0.3820     0.8610 oh         1 GWE      -0.592200
     37 H3          -6.1160    -0.0320     0.5460 ha         1 GWE       0.147000
     38 H5          -5.4800     3.8370    -1.2450 ha         1 GWE       0.134000
     39 H6          -3.1310     3.8390    -0.4380 ha         1 GWE       0.127000
     40 H9          -1.8210    -1.7010     3.1860 ha         1 GWE       0.157000
     41 H11          1.3440    -2.3350     0.3520 ha         1 GWE       0.150000
     42 H13         -2.3240    -0.4140    -0.9180 ha         1 GWE       0.133000
     43 H15         -0.9770     2.1910    -0.8040 h1         1 GWE       0.058200
     44 H15A        -0.8850     3.5470     0.3420 h1         1 GWE       0.058200
     45 HN1          1.1820     2.3100    -1.0580 hn         1 GWE       0.319500
     46 H19          5.3570     0.9310    -2.3400 ha         1 GWE       0.167000
     47 H21          4.6540    -0.8950     1.6410 ha         1 GWE       0.185000
     48 H22          2.5230     0.1980     1.7110 ha         1 GWE       0.212000
     49 H23          2.8170     3.3130    -2.1520 hc         1 GWE       0.040367
     50 H23A         3.7700     2.3790    -3.3080 hc         1 GWE       0.040367
     51 H23B         2.1080     1.8950    -2.9610 hc         1 GWE       0.040367
     52 HNS          7.2810    -2.9020    -0.0960 hn         1 GWE       0.247500
     53 HNSA         8.3800    -1.8680     0.4610 hn         1 GWE       0.247500
     54 H18          5.1470    -1.5100    -0.1160 ho         1 GWE       0.508500
     55 H191         6.7730    -1.1920     1.2890 ho         1 GWE       0.508500
@<TRIPOS>BOND
     1     1     2 ar  
     2     1     6 ar  
     3     1    21 1   
     4     2     3 ar  
     5     2     8 1   
     6     3     4 ar  
     7     3    37 1   
     8     4     5 ar  
     9     4     7 1   
    10     5     6 ar  
    11     5    38 1   
    12     6    39 1   
    13     8     9 2   
    14     8    10 1   
    15    10    11 ar  
    16    10    15 ar  
    17    11    12 ar  
    18    11    40 1   
    19    12    13 ar  
    20    12    20 1   
    21    13    14 ar  
    22    13    41 1   
    23    14    15 ar  
    24    14    16 1   
    25    15    42 1   
    26    16    17 1   
    27    16    18 1   
    28    16    19 1   
    29    21    22 1   
    30    22    23 1   
    31    22    43 1   
    32    22    44 1   
    33    23    24 2   
    34    23    25 1   
    35    25    26 2   
    36    25    45 1   
    37    26    27 1   
    38    26    31 1   
    39    27    28 2   
    40    27    32 1   
    41    28    29 1   
    42    28    46 1   
    43    29    30 1   
    44    29    33 2   
    45    30    31 2   
    46    30    47 1   
    47    31    48 1   
    48    32    49 1   
    49    32    50 1   
    50    32    51 1   
    51    33    34 2   
    52    33    35 1   
    53    33    36 1   
    54    34    52 1   
    55    34    53 1   
    56    35    54 1   
    57    36    55 1   
@<TRIPOS>SUBSTRUCTURE
     1 GWE         1 TEMP              0 ****  ****    0 ROOT
