@<TRIPOS>MOLECULE
GWF
   66    72     1     0     0
SMALL
bcc


@<TRIPOS>ATOM
      1 CAA         23.0130    -9.5290   -44.7800 ca         1 GWF      -0.113600
      2 CAB         22.6480   -10.6740   -45.4970 ca         1 GWF      -0.131000
      3 CAC         21.6510   -11.5020   -45.0380 ca         1 GWF       0.127900
      4 CAD         20.9680   -11.2350   -43.8550 ca         1 GWF       0.063400
      5 CAE         21.3620   -10.0890   -43.1480 ca         1 GWF      -0.038100
      6 CAF         22.3630    -9.2390   -43.5850 ca         1 GWF      -0.081000
      7 CAG         24.1050    -8.6060   -45.3140 c          1 GWF       0.925200
      8 CAL         19.5250   -11.4270   -42.2170 cc         1 GWF       0.632100
      9 CAP         16.6380   -11.7230   -40.1230 c5         1 GWF      -0.074900
     10 CAQ         18.1560   -11.5020   -40.1330 c5         1 GWF       0.234500
     11 CAR         18.9310   -12.4440   -39.2060 c6         1 GWF      -0.113900
     12 CAS         18.6540   -13.9270   -39.4770 c6         1 GWF       0.156100
     13 CAT         18.5480   -14.2100   -40.9840 c6         1 GWF      -0.113900
     14 CAU         17.7980   -13.1200   -41.7500 c5         1 GWF       0.234500
     15 CAX         16.2170   -15.9420   -37.6510 cc         1 GWF      -0.318900
     16 CAY         16.3440   -16.5650   -36.4480 cd         1 GWF       0.337000
     17 CBB         14.8490   -15.5540   -37.6690 cc         1 GWF       0.409800
     18 CBC         17.4800   -17.1920   -35.7790 cx         1 GWF      -0.191000
     19 CBD         17.2990   -18.4280   -34.9340 cx         1 GWF      -0.107900
     20 CBE         17.6270   -17.1330   -34.2790 cx         1 GWF      -0.107900
     21 CBF         14.1260   -14.7730   -38.6860 ca         1 GWF      -0.112500
     22 CBG         13.8380   -15.2970   -39.9400 ca         1 GWF       0.119100
     23 CBH         13.1660   -14.5610   -40.9000 ca         1 GWF      -0.137000
     24 CBI         12.7580   -13.2700   -40.5930 ca         1 GWF      -0.106000
     25 CBJ         13.0270   -12.7280   -39.3460 ca         1 GWF      -0.122000
     26 CBK         13.7100   -13.4760   -38.4000 ca         1 GWF      -0.085000
     27 CBM         13.4290   -17.5780   -40.3430 c3         1 GWF       0.856700
     28 FAJ         21.3110   -12.5970   -45.7410 f          1 GWF      -0.154900
     29 FBN         12.4970   -17.5650   -39.3930 f          1 GWF      -0.229300
     30 FBO         14.1040   -18.7130   -40.2660 f          1 GWF      -0.229300
     31 FBP         12.7930   -17.5610   -41.5170 f          1 GWF      -0.229300
     32 NAK         19.9500   -11.9730   -43.3170 nd         1 GWF      -0.614100
     33 NAN         18.4810   -11.8540   -41.5090 nh         1 GWF      -0.738600
     34 NBA         14.2330   -15.9160   -36.5820 nd         1 GWF      -0.356300
     35 OAH         24.6320    -8.9380   -46.3920 o          1 GWF      -0.817300
     36 OAI         24.3650    -7.6010   -44.6240 o          1 GWF      -0.817300
     37 OAV         17.4960   -14.2920   -38.7440 os         1 GWF      -0.415600
     38 OAZ         15.1650   -16.5570   -35.8220 os         1 GWF      -0.121100
     39 OBL         14.3070   -16.5720   -40.2190 os         1 GWF      -0.381900
     40 SAM         20.3830    -9.9630   -41.7120 ss         1 GWF      -0.222100
     41 H1          23.1520   -10.9100   -46.4260 ha         1 GWF       0.167000
     42 H2          22.6380    -8.3580   -43.0200 ha         1 GWF       0.162000
     43 H3          15.7680   -12.4250   -41.9930 hc         1 GWF       0.048450
     44 H4          15.9150   -13.6970   -40.7990 hc         1 GWF       0.048450
     45 H5          16.1330   -10.7980   -40.4010 hc         1 GWF       0.048450
     46 H6          16.2730   -12.0090   -39.1400 hc         1 GWF       0.048450
     47 H7          18.4160   -10.4640   -39.9170 h1         1 GWF       0.085200
     48 H8          20.0000   -12.2590   -39.3460 hc         1 GWF       0.059700
     49 H9          18.7110   -12.2160   -38.1610 hc         1 GWF       0.059700
     50 H10         19.5030   -14.5080   -39.0870 h1         1 GWF       0.027700
     51 H11         18.0910   -15.1840   -41.1740 hc         1 GWF       0.059700
     52 H12         19.5610   -14.2770   -41.3900 hc         1 GWF       0.059700
     53 H13         17.7830   -13.3480   -42.8150 h1         1 GWF       0.085200
     54 H14         16.9320   -16.0760   -39.6470 h1         1 GWF       0.036200
     55 H15         18.1780   -16.2210   -38.4190 h1         1 GWF       0.036200
     56 H16         18.3970   -17.1360   -36.3520 hc         1 GWF       0.099700
     57 H17         16.2970   -18.8230   -34.8200 hc         1 GWF       0.080450
     58 H18         18.0720   -19.1810   -35.0080 hc         1 GWF       0.080450
     59 H19         18.6280   -16.9850   -33.8970 hc         1 GWF       0.080450
     60 H20         16.8530   -16.6330   -33.7120 hc         1 GWF       0.080450
     61 H21         12.9740   -14.9710   -41.8820 ha         1 GWF       0.156000
     62 H22         12.2340   -12.6880   -41.3390 ha         1 GWF       0.141000
     63 H23         12.7130   -11.7200   -39.1100 ha         1 GWF       0.141000
     64 H24         13.9340   -13.0530   -37.4290 ha         1 GWF       0.149000
     65 CAW         17.2590   -15.6800   -38.6800 c3         1 GWF       0.217700
     66 CAO         16.4010   -12.8090   -41.1950 c5         1 GWF      -0.074900
@<TRIPOS>BOND
     1     1     2 ar  
     2     1     6 ar  
     3     1     7 1   
     4     2     3 ar  
     5     2    41 1   
     6     3     4 ar  
     7     3    28 1   
     8     4     5 ar  
     9     4    32 1   
    10     5     6 ar  
    11     5    40 1   
    12     6    42 1   
    13     7    35 1   
    14     7    36 1   
    15     8    32 2   
    16     8    33 1   
    17     8    40 1   
    18     9    10 1   
    19     9    45 1   
    20     9    46 1   
    21     9    66 1   
    22    10    11 1   
    23    10    33 1   
    24    10    47 1   
    25    11    12 1   
    26    11    48 1   
    27    11    49 1   
    28    12    13 1   
    29    12    37 1   
    30    12    50 1   
    31    13    14 1   
    32    13    51 1   
    33    13    52 1   
    34    14    33 1   
    35    14    53 1   
    36    14    66 1   
    37    15    16 2   
    38    15    17 1   
    39    15    65 1   
    40    16    18 1   
    41    16    38 1   
    42    17    21 1   
    43    17    34 2   
    44    18    19 1   
    45    18    20 1   
    46    18    56 1   
    47    19    20 1   
    48    19    57 1   
    49    19    58 1   
    50    20    59 1   
    51    20    60 1   
    52    21    22 ar  
    53    21    26 ar  
    54    22    23 ar  
    55    22    39 1   
    56    23    24 ar  
    57    23    61 1   
    58    24    25 ar  
    59    24    62 1   
    60    25    26 ar  
    61    25    63 1   
    62    26    64 1   
    63    27    29 1   
    64    27    30 1   
    65    27    31 1   
    66    27    39 1   
    67    34    38 1   
    68    37    65 1   
    69    43    66 1   
    70    44    66 1   
    71    54    65 1   
    72    55    65 1   
@<TRIPOS>SUBSTRUCTURE
     1 GWF         1 TEMP              0 ****  ****    0 ROOT
