@<TRIPOS>MOLECULE
GWF
   66    72     1     0     0
SMALL
No Charge or Current Charge


@<TRIPOS>ATOM
      1 CAA         23.0600   -10.4450   -44.7600 ca         1 GWF      -0.113600
      2 CAB         22.3340   -11.3880   -45.5350 ca         1 GWF      -0.113000
      3 CAC         21.0900   -11.8800   -45.0950 ca         1 GWF       0.163000
      4 CAD         20.5540   -11.4350   -43.8670 ca         1 GWF       0.063400
      5 CAE         21.2620   -10.5170   -43.1180 ca         1 GWF      -0.165000
      6 CAF         22.5030   -10.0090   -43.5320 ca         1 GWF      -0.063000
      7 CAG         24.4020    -9.9130   -45.2350 c          1 GWF       0.714600
      8 CAL         19.1680   -11.2400   -42.1510 cc         1 GWF       0.632100
      9 CAP         16.5580   -11.2920   -39.6650 c5         1 GWF      -0.074900
     10 CAQ         18.0880   -11.1780   -39.9580 c5         1 GWF       0.234500
     11 CAR         18.9560   -12.2480   -39.2300 c6         1 GWF      -0.113900
     12 CAS         18.4980   -13.7070   -39.5140 c6         1 GWF       0.179300
     13 CAT         18.0720   -13.9050   -41.0040 c6         1 GWF      -0.113900
     14 CAU         17.2870   -12.6880   -41.5810 c5         1 GWF       0.234500
     15 CAX         16.1610   -15.6180   -37.3330 cc         1 GWF      -0.188300
     16 CAY         16.3610   -16.0140   -36.0500 cd         1 GWF       0.227300
     17 CBB         14.8150   -15.1580   -37.3390 cc         1 GWF       0.344500
     18 CBC         17.6000   -16.5400   -35.4210 cx         1 GWF      -0.191000
     19 CBD         18.3070   -17.7550   -35.9830 cx         1 GWF      -0.107900
     20 CBE         17.5770   -17.8510   -34.6660 cx         1 GWF      -0.107900
     21 CBF         14.0360   -14.6980   -38.5000 ca         1 GWF      -0.112500
     22 CBG         14.0190   -15.3960   -39.7340 ca         1 GWF       0.119100
     23 CBH         13.2520   -14.8910   -40.8120 ca         1 GWF      -0.119000
     24 CBI         12.4790   -13.7300   -40.6540 ca         1 GWF      -0.088000
     25 CBJ         12.4370   -13.0820   -39.4130 ca         1 GWF      -0.104000
     26 CBK         13.1940   -13.5740   -38.3400 ca         1 GWF      -0.067000
     27 CBM         14.7940   -17.4060   -41.0060 c3         1 GWF       0.516000
     28 FAJ         20.4230   -12.7790   -45.8560 f          1 GWF      -0.190000
     29 FBN         13.5940   -17.8500   -41.4480 f          1 GWF      -0.108000
     30 FBO         15.5540   -18.4990   -40.7750 f          1 GWF      -0.108000
     31 FBP         15.3860   -16.7230   -42.0130 f          1 GWF      -0.108000
     32 NAK         19.3340   -11.8510   -43.3310 nd         1 GWF      -0.614100
     33 NAN         18.0100   -11.4200   -41.4050 nh         1 GWF      -0.738600
     34 NBA         14.2280   -15.2580   -36.1520 nd         1 GWF      -0.356300
     35 OAH         24.8450   -10.3160   -46.3020 o          1 GWF      -0.712000
     36 OAI         24.9920    -9.1010   -44.5360 o          1 GWF      -0.712000
     37 OAV         17.4620   -14.0840   -38.5820 os         1 GWF      -0.462000
     38 OAZ         15.2330   -15.8240   -35.3040 os         1 GWF      -0.076700
     39 OBL         14.6750   -16.6130   -39.8090 os         1 GWF      -0.405100
     40 SAM         20.4280   -10.0810   -41.6400 ss         1 GWF      -0.095200
     41 H1          22.7310   -11.7440   -46.4820 ha         1 GWF       0.149000
     42 H2          23.0250    -9.2850   -42.9090 ha         1 GWF       0.144000
     43 H3          15.2740   -11.8190   -41.3870 hc         1 GWF       0.048450
     44 H4          15.5450   -13.1760   -40.3080 hc         1 GWF       0.048450
     45 H5          16.0710   -10.3170   -39.7800 hc         1 GWF       0.048450
     46 H6          16.3530   -11.6240   -38.6410 hc         1 GWF       0.048450
     47 H7          18.4550   -10.1730   -39.7020 h1         1 GWF       0.085200
     48 H8          20.0030   -12.1370   -39.5400 hc         1 GWF       0.059700
     49 H9          18.9450   -12.0590   -38.1480 hc         1 GWF       0.059700
     50 H10         19.3560   -14.3650   -39.3130 h1         1 GWF       0.027700
     51 H11         17.4770   -14.8160   -41.1310 hc         1 GWF       0.059700
     52 H12         18.9750   -14.0620   -41.6080 hc         1 GWF       0.059700
     53 H13         17.0190   -12.8910   -42.6290 h1         1 GWF       0.085200
     54 H14         16.8260   -15.9220   -39.3710 h1         1 GWF       0.036200
     55 H15         18.0900   -16.0250   -38.1520 h1         1 GWF       0.036200
     56 H16         18.2210   -15.7520   -35.0000 hc         1 GWF       0.099700
     57 H17         17.8650   -18.2570   -36.8410 hc         1 GWF       0.080450
     58 H18         19.3950   -17.7640   -35.9630 hc         1 GWF       0.080450
     59 H19         18.1740   -17.9260   -33.7590 hc         1 GWF       0.080450
     60 H20         16.6470   -18.4140   -34.6440 hc         1 GWF       0.080450
     61 H21         13.2200   -15.3910   -41.7740 ha         1 GWF       0.138000
     62 H22         11.8900   -13.3490   -41.4860 ha         1 GWF       0.123000
     63 H23         11.8190   -12.1960   -39.2810 ha         1 GWF       0.123000
     64 H24         13.1580   -13.0520   -37.3860 ha         1 GWF       0.131000
     65 CAW         17.1780   -15.4860   -38.4350 c3         1 GWF       0.240900
     66 CAO         16.0250   -12.3010   -40.7510 c5         1 GWF      -0.074900
@<TRIPOS>BOND
     1     1     2 ar  
     2     1     6 ar  
     3     1     7 1   
     4     2     3 ar  
     5     2    41 1   
     6     3     4 ar  
     7     3    28 1   
     8     4     5 ar  
     9     4    32 1   
    10     5     6 ar  
    11     5    40 1   
    12     6    42 1   
    13     7    35 1   
    14     7    36 1   
    15     8    32 2   
    16     8    33 1   
    17     8    40 1   
    18     9    10 1   
    19     9    45 1   
    20     9    46 1   
    21     9    66 1   
    22    10    11 1   
    23    10    33 1   
    24    10    47 1   
    25    11    12 1   
    26    11    48 1   
    27    11    49 1   
    28    12    13 1   
    29    12    37 1   
    30    12    50 1   
    31    13    14 1   
    32    13    51 1   
    33    13    52 1   
    34    14    33 1   
    35    14    53 1   
    36    14    66 1   
    37    15    16 2   
    38    15    17 1   
    39    15    65 1   
    40    16    18 1   
    41    16    38 1   
    42    17    21 1   
    43    17    34 2   
    44    18    19 1   
    45    18    20 1   
    46    18    56 1   
    47    19    20 1   
    48    19    57 1   
    49    19    58 1   
    50    20    59 1   
    51    20    60 1   
    52    21    22 ar  
    53    21    26 ar  
    54    22    23 ar  
    55    22    39 1   
    56    23    24 ar  
    57    23    61 1   
    58    24    25 ar  
    59    24    62 1   
    60    25    26 ar  
    61    25    63 1   
    62    26    64 1   
    63    27    29 1   
    64    27    30 1   
    65    27    31 1   
    66    27    39 1   
    67    34    38 1   
    68    37    65 1   
    69    43    66 1   
    70    44    66 1   
    71    54    65 1   
    72    55    65 1   
@<TRIPOS>SUBSTRUCTURE
     1 GWF         1 TEMP              0 ****  ****    0 ROOT
