@<TRIPOS>MOLECULE
GWG
   22    23     1     0     0
SMALL
No Charge or Current Charge


@<TRIPOS>ATOM
      1 N1           0.8680    -1.4970    -0.0460 nc         1 GWG      -0.517100
      2 C4          -0.6180     1.8780     0.0260 ca         1 GWG      -0.022000
      3 C5          -1.9950     2.1870     0.0410 ca         1 GWG      -0.148000
      4 C6          -2.9650     1.1550     0.0280 ca         1 GWG      -0.073000
      5 C7          -2.5640    -0.1980    -0.0000 ca         1 GWG      -0.131000
      6 C8          -1.1880    -0.4710    -0.0140 ca         1 GWG      -0.055200
      7 O            2.5650     1.7440     0.0040 o          1 GWG      -0.607100
      8 N2           3.4640    -0.2910    -0.0400 nt         1 GWG      -0.596000
      9 C1           1.0350    -0.1530    -0.0220 cd         1 GWG       0.293900
     10 C3          -0.2570     0.5210    -0.0010 ca         1 GWG      -0.182900
     11 N           -0.5170    -1.6790    -0.0410 na         1 GWG       0.092600
     12 C           -1.1680    -2.9960    -0.0620 c3         1 GWG       0.078900
     13 H1           0.1290     2.6690     0.0360 ha         1 GWG       0.143000
     14 H2          -2.3140     3.2270     0.0620 ha         1 GWG       0.117000
     15 H3          -4.0230     1.4050     0.0390 ha         1 GWG       0.113000
     16 H4          -3.3010    -0.9980    -0.0110 ha         1 GWG       0.119000
     17 H5           4.3930     0.1030    -0.0390 hn         1 GWG       0.322500
     18 H6           3.3230    -1.2910    -0.0580 hn         1 GWG       0.322500
     19 H7          -1.7890    -3.1110     0.8350 h1         1 GWG       0.056700
     20 H8          -1.7990    -3.0780    -0.9550 h1         1 GWG       0.056700
     21 H9          -0.4090    -3.7880    -0.0810 h1         1 GWG       0.056700
     22 C2           2.3840     0.5330    -0.0180 c          1 GWG       0.560800
@<TRIPOS>BOND
     1     1     9 2   
     2     1    11 1   
     3     2     3 ar  
     4     2    10 ar  
     5     2    13 1   
     6     3     4 ar  
     7     3    14 1   
     8     4     5 ar  
     9     4    15 1   
    10     5     6 ar  
    11     5    16 1   
    12     6    10 ar  
    13     6    11 1   
    14     7    22 2   
    15     8    17 1   
    16     8    18 1   
    17     8    22 1   
    18     9    10 1   
    19     9    22 1   
    20    11    12 1   
    21    12    19 1   
    22    12    20 1   
    23    12    21 1   
@<TRIPOS>SUBSTRUCTURE
     1 GWG         1 TEMP              0 ****  ****    0 ROOT
