@<TRIPOS>MOLECULE
GWG
   22    23     1     0     0
SMALL
bcc


@<TRIPOS>ATOM
      1 N1           0.8010    -1.4060    -0.0470 nc         1 GWG      -0.517100
      2 C4          -0.6540     1.9280     0.0190 ca         1 GWG      -0.040000
      3 C5          -2.0060     2.1840     0.0230 ca         1 GWG      -0.166000
      4 C6          -2.9530     1.1390    -0.0020 ca         1 GWG      -0.091000
      5 C7          -2.5700    -0.1830    -0.0310 ca         1 GWG      -0.149000
      6 C8          -1.1940    -0.4370    -0.0350 ca         1 GWG      -0.055200
      7 O            2.5240     1.6830     0.0260 o          1 GWG      -0.607100
      8 N2           3.3700    -0.4150    -0.0190 nt         1 GWG      -0.663000
      9 C1           1.0040    -0.1070    -0.0180 cd         1 GWG       0.293900
     10 C3          -0.2350     0.5900    -0.0090 ca         1 GWG      -0.182900
     11 N           -0.5050    -1.6080    -0.0650 na         1 GWG       0.121900
     12 C           -1.0530    -2.9430    -0.0400 c3         1 GWG       0.049600
     13 H1           0.0660     2.7330     0.0390 ha         1 GWG       0.161000
     14 H2          -2.3560     3.2080     0.0460 ha         1 GWG       0.135000
     15 H3          -4.0070     1.3830     0.0030 ha         1 GWG       0.131000
     16 H4          -3.3010    -0.9800    -0.0470 ha         1 GWG       0.137000
     17 H5           4.3250    -0.0990    -0.0030 hn         1 GWG       0.322500
     18 H6           3.1990    -1.4060    -0.0350 hn         1 GWG       0.322500
     19 H7          -1.4050    -3.2020     0.9580 h1         1 GWG       0.056700
     20 H8          -1.8820    -3.0180    -0.7400 h1         1 GWG       0.056700
     21 H9          -0.2770    -3.6400    -0.3380 h1         1 GWG       0.056700
     22 C2           2.3640     0.4690    -0.0020 c          1 GWG       0.627800
@<TRIPOS>BOND
     1     1     9 2   
     2     1    11 1   
     3     2     3 ar  
     4     2    10 ar  
     5     2    13 1   
     6     3     4 ar  
     7     3    14 1   
     8     4     5 ar  
     9     4    15 1   
    10     5     6 ar  
    11     5    16 1   
    12     6    10 ar  
    13     6    11 1   
    14     7    22 2   
    15     8    17 1   
    16     8    18 1   
    17     8    22 1   
    18     9    10 1   
    19     9    22 1   
    20    11    12 1   
    21    12    19 1   
    22    12    20 1   
    23    12    21 1   
@<TRIPOS>SUBSTRUCTURE
     1 GWG         1 TEMP              0 ****  ****    0 ROOT
