@<TRIPOS>MOLECULE
GWH
   54    57     1     0     0
SMALL
abcg2


@<TRIPOS>ATOM
      1 C1          30.0020    44.7220     9.1940 ca         1 GWH       0.029100
      2 C2          28.9470    44.4090    10.0900 ca         1 GWH       0.587900
      3 N3          27.9530    45.2620    10.3180 nb         1 GWH      -0.725000
      4 C4          27.9560    46.4490     9.6950 ca         1 GWH       0.370900
      5 C5          28.9410    46.8460     8.8040 cp         1 GWH      -0.128000
      6 C6          29.9880    45.9400     8.5540 ca         1 GWH      -0.111000
      7 O7          30.9430    43.7510     9.0430 os         1 GWH      -0.365100
      8 N8          28.9650    43.2210    10.7720 nv         1 GWH      -1.047900
      9 C9          32.0890    44.0290     8.2070 c3         1 GWH       0.221600
     10 C10         32.9540    45.1000     8.8410 ca         1 GWH      -0.074300
     11 C11         32.8140    42.7060     8.0420 c3         1 GWH      -0.082100
     12 C12         33.4300    46.2030     8.1110 ca         1 GWH      -0.090200
     13 C13         34.1680    47.1970     8.7540 ca         1 GWH      -0.097000
     14 C14         34.4510    47.1060    10.1110 ca         1 GWH      -0.135000
     15 C15         33.9920    46.0040    10.8030 ca         1 GWH       0.167000
     16 C16         33.2550    45.0060    10.1960 ca         1 GWH      -0.120000
     17 F17         34.2620    45.9000    12.1310 f          1 GWH      -0.177000
     18 N18         33.0690    46.3120     6.7420 na         1 GWH      -0.042800
     19 N19         33.4480    47.5800     6.1030 na         1 GWH      -0.188000
     20 C20         33.5520    47.2090     4.7420 cc         1 GWH      -0.206500
     21 C21         33.7050    45.8960     4.6180 cd         1 GWH      -0.206500
     22 N22         33.6780    45.2700     5.9170 na         1 GWH      -0.188000
     23 C23         28.9190    48.1710     8.1590 cp         1 GWH      -0.019000
     24 C24         27.7100    48.7640     7.7800 ca         1 GWH      -0.015000
     25 C25         27.7090    50.0190     7.1880 ca         1 GWH      -0.267500
     26 C26         28.8880    50.7160     6.9400 ca         1 GWH      -0.023000
     27 C27         30.0910    50.1240     7.3060 ca         1 GWH      -0.131000
     28 C28         30.1050    48.8730     7.9080 ca         1 GWH      -0.060000
     29 S29         26.1580    50.7280     6.6910 sy         1 GWH       1.078500
     30 C30         26.0310    50.3350     4.9640 c3         1 GWH      -0.341100
     31 O31         25.0900    50.0420     7.3970 o          1 GWH      -0.529000
     32 O32         26.2480    52.1720     6.8230 o          1 GWH      -0.529000
     33 H4          27.1380    47.1150     9.9420 h4         1 GWH       0.026100
     34 H6          30.7590    46.1990     7.8430 ha         1 GWH       0.138000
     35 HN8         28.0870    42.9320    11.1750 hn         1 GWH       0.478000
     36 HN8A        29.5290    42.4810    10.3850 hn         1 GWH       0.478000
     37 H9          31.7330    44.3760     7.2390 h1         1 GWH       0.085700
     38 H11         33.6900    42.8460     7.4100 hc         1 GWH       0.050033
     39 H11A        33.1380    42.3240     9.0120 hc         1 GWH       0.050033
     40 H11B        32.1560    41.9730     7.5740 hc         1 GWH       0.050033
     41 H13         34.5130    48.0470     8.1860 ha         1 GWH       0.137000
     42 H14         35.0170    47.8760    10.6180 ha         1 GWH       0.137000
     43 H16         32.8880    44.1740    10.7820 ha         1 GWH       0.148000
     44 HN19        32.6830    48.2270     6.2660 hn         1 GWH       0.263500
     45 H20         33.5350    47.9710     3.9800 h4         1 GWH       0.159000
     46 H21         33.8910    45.3040     3.7370 h4         1 GWH       0.159000
     47 HN22        34.6450    45.1440     6.2380 hn         1 GWH       0.263500
     48 H24         26.7750    48.2460     7.9350 ha         1 GWH       0.141000
     49 H26         28.8650    51.6930     6.4790 ha         1 GWH       0.132000
     50 H27         31.0230    50.6470     7.1300 ha         1 GWH       0.116000
     51 H28         31.0510    48.4400     8.2090 ha         1 GWH       0.120000
     52 H30         25.0880    50.7590     4.6190 h1         1 GWH       0.102700
     53 H30A        26.8730    50.7880     4.4430 h1         1 GWH       0.102700
     54 H30B        26.0360    49.2530     4.8540 h1         1 GWH       0.102700
@<TRIPOS>BOND
     1     1     2 ar  
     2     1     6 ar  
     3     1     7 1   
     4     2     3 ar  
     5     2     8 1   
     6     3     4 ar  
     7     4     5 ar  
     8     4    33 1   
     9     5     6 ar  
    10     5    23 1   
    11     6    34 1   
    12     7     9 1   
    13     8    35 1   
    14     8    36 1   
    15     9    10 1   
    16     9    11 1   
    17     9    37 1   
    18    10    12 ar  
    19    10    16 ar  
    20    11    38 1   
    21    11    39 1   
    22    11    40 1   
    23    12    13 ar  
    24    12    18 1   
    25    13    14 ar  
    26    13    41 1   
    27    14    15 ar  
    28    14    42 1   
    29    15    16 ar  
    30    15    17 1   
    31    16    43 1   
    32    18    19 1   
    33    18    22 1   
    34    19    20 1   
    35    19    44 1   
    36    20    21 2   
    37    20    45 1   
    38    21    22 1   
    39    21    46 1   
    40    22    47 1   
    41    23    24 ar  
    42    23    28 ar  
    43    24    25 ar  
    44    24    48 1   
    45    25    26 ar  
    46    25    29 1   
    47    26    27 ar  
    48    26    49 1   
    49    27    28 ar  
    50    27    50 1   
    51    28    51 1   
    52    29    30 1   
    53    29    31 2   
    54    29    32 2   
    55    30    52 1   
    56    30    53 1   
    57    30    54 1   
@<TRIPOS>SUBSTRUCTURE
     1 GWH         1 TEMP              0 ****  ****    0 ROOT
