@<TRIPOS>MOLECULE
GWH
   54    57     1     0     0
SMALL
No Charge or Current Charge


@<TRIPOS>ATOM
      1 C1          29.9280    44.6690     9.2240 ca         1 GWH       0.029100
      2 C2          28.8640    44.4430    10.1380 ca         1 GWH       0.587900
      3 N3          27.8840    45.3010    10.4060 nb         1 GWH      -0.725000
      4 C4          27.9240    46.4900     9.7600 ca         1 GWH       0.370900
      5 C5          28.9310    46.8570     8.8250 cp         1 GWH      -0.128000
      6 C6          29.9470    45.9090     8.5510 ca         1 GWH      -0.111000
      7 O7          30.8930    43.6870     9.0160 os         1 GWH      -0.365100
      8 N8          28.6980    43.3110    10.8450 nv         1 GWH      -1.047900
      9 C9          32.0610    43.8990     8.1950 c3         1 GWH       0.221600
     10 C10         32.9650    44.9720     8.8330 ca         1 GWH      -0.074300
     11 C11         32.7830    42.5450     8.0850 c3         1 GWH      -0.082100
     12 C12         33.5710    45.9960     8.0560 ca         1 GWH      -0.090200
     13 C13         34.3900    46.9610     8.6940 ca         1 GWH      -0.097000
     14 C14         34.6050    46.9110    10.0800 ca         1 GWH      -0.135000
     15 C15         34.0100    45.8980    10.8410 ca         1 GWH       0.167000
     16 C16         33.1990    44.9350    10.2260 ca         1 GWH      -0.120000
     17 F17         34.2180    45.8480    12.1740 f          1 GWH      -0.177000
     18 N18         33.3490    46.0300     6.6730 na         1 GWH      -0.042800
     19 N19         33.1560    47.2940     6.0760 na         1 GWH      -0.188000
     20 C20         32.9460    47.1640     4.7210 cc         1 GWH      -0.206500
     21 C21         34.0020    46.3760     4.5220 cd         1 GWH      -0.206500
     22 N22         34.4360    46.3420     5.8300 na         1 GWH      -0.188000
     23 C23         28.9290    48.1950     8.1560 cp         1 GWH      -0.019000
     24 C24         27.7180    48.8220     7.7690 ca         1 GWH      -0.015000
     25 C25         27.7200    50.0820     7.1340 ca         1 GWH      -0.267500
     26 C26         28.9440    50.7320     6.8750 ca         1 GWH      -0.023000
     27 C27         30.1520    50.1260     7.2560 ca         1 GWH      -0.131000
     28 C28         30.1440    48.8730     7.8900 ca         1 GWH      -0.060000
     29 S29         26.1630    50.8490     6.6350 sy         1 GWH       1.078500
     30 C30         25.9200    50.2270     4.9730 c3         1 GWH      -0.341100
     31 O31         25.0770    50.2940     7.4530 o          1 GWH      -0.529000
     32 O32         26.3630    52.3000     6.5150 o          1 GWH      -0.529000
     33 H4          27.1240    47.1870    10.0080 h4         1 GWH       0.026100
     34 H6          30.7140    46.1440     7.8210 ha         1 GWH       0.138000
     35 HN8         27.7700    43.1670    11.2230 hn         1 GWH       0.478000
     36 HN8A        29.1980    42.4910    10.5190 hn         1 GWH       0.478000
     37 H9          31.7520    44.1950     7.1850 h1         1 GWH       0.085700
     38 H11         33.6800    42.6430     7.4640 hc         1 GWH       0.050033
     39 H11A        33.0860    42.1800     9.0730 hc         1 GWH       0.050033
     40 H11B        32.1270    41.7970     7.6230 hc         1 GWH       0.050033
     41 H13         34.8660    47.7550     8.1210 ha         1 GWH       0.137000
     42 H14         35.2330    47.6540    10.5650 ha         1 GWH       0.137000
     43 H16         32.7480    44.1580    10.8380 ha         1 GWH       0.148000
     44 HN19        32.7410    47.9850     6.6890 hn         1 GWH       0.263500
     45 H20         32.2750    47.7370     4.0900 h4         1 GWH       0.159000
     46 H21         34.5430    46.0440     3.6410 h4         1 GWH       0.159000
     47 HN22        35.3310    46.0010     6.1580 hn         1 GWH       0.263500
     48 H24         26.7730    48.3130     7.9520 ha         1 GWH       0.141000
     49 H26         28.9660    51.7030     6.3810 ha         1 GWH       0.132000
     50 H27         31.0950    50.6300     7.0620 ha         1 GWH       0.116000
     51 H28         31.0890    48.4300     8.1940 ha         1 GWH       0.120000
     52 H30         24.9860    50.6460     4.5850 h1         1 GWH       0.102700
     53 H30A        26.7710    50.5460     4.3620 h1         1 GWH       0.102700
     54 H30B        25.8660    49.1350     5.0210 h1         1 GWH       0.102700
@<TRIPOS>BOND
     1     1     2 ar  
     2     1     6 ar  
     3     1     7 1   
     4     2     3 ar  
     5     2     8 1   
     6     3     4 ar  
     7     4     5 ar  
     8     4    33 1   
     9     5     6 ar  
    10     5    23 1   
    11     6    34 1   
    12     7     9 1   
    13     8    35 1   
    14     8    36 1   
    15     9    10 1   
    16     9    11 1   
    17     9    37 1   
    18    10    12 ar  
    19    10    16 ar  
    20    11    38 1   
    21    11    39 1   
    22    11    40 1   
    23    12    13 ar  
    24    12    18 1   
    25    13    14 ar  
    26    13    41 1   
    27    14    15 ar  
    28    14    42 1   
    29    15    16 ar  
    30    15    17 1   
    31    16    43 1   
    32    18    19 1   
    33    18    22 1   
    34    19    20 1   
    35    19    44 1   
    36    20    21 2   
    37    20    45 1   
    38    21    22 1   
    39    21    46 1   
    40    22    47 1   
    41    23    24 ar  
    42    23    28 ar  
    43    24    25 ar  
    44    24    48 1   
    45    25    26 ar  
    46    25    29 1   
    47    26    27 ar  
    48    26    49 1   
    49    27    28 ar  
    50    27    50 1   
    51    28    51 1   
    52    29    30 1   
    53    29    31 2   
    54    29    32 2   
    55    30    52 1   
    56    30    53 1   
    57    30    54 1   
@<TRIPOS>SUBSTRUCTURE
     1 GWH         1 TEMP              0 ****  ****    0 ROOT
