@<TRIPOS>MOLECULE
GWI
   59    61     1     0     0
SMALL
abcg2


@<TRIPOS>ATOM
      1 C1          -3.9740     2.0200     0.4200 ca         1 GWI       0.153100
      2 C2          -4.8540     0.9380     0.3250 ca         1 GWI      -0.180600
      3 C3          -6.1360     1.1300    -0.1780 ca         1 GWI      -0.033000
      4 C6          -4.3560     3.2700    -0.0490 ca         1 GWI      -0.173000
      5 C4          -6.5030     2.3790    -0.6440 ca         1 GWI       0.088000
      6 C5          -5.6190     3.4470    -0.5910 ca         1 GWI      -0.055000
      7 CL          -8.0840     2.6110    -1.3090 cl         1 GWI      -0.183000
      8 C7          -4.4460    -0.4240     0.7700 c          1 GWI       0.609300
      9 O1          -5.1730    -1.1090     1.4520 o          1 GWI      -0.493100
     10 C8          -3.1250    -0.9410     0.3070 ca         1 GWI      -0.144600
     11 C9          -2.4360    -1.8470     1.1060 ca         1 GWI      -0.017000
     12 C10         -1.2060    -2.3260     0.6910 ca         1 GWI       0.110000
     13 C11         -0.6590    -1.9510    -0.5230 ca         1 GWI      -0.046000
     14 C12         -1.3700    -1.0610    -1.3230 ca         1 GWI      -0.030000
     15 C13         -2.5960    -0.5460    -0.9130 ca         1 GWI      -0.054000
     16 CL1         -0.3100    -3.3810     1.7200 cl         1 GWI      -0.170000
     17 O2          -2.7960     1.7850     1.0300 os         1 GWI      -0.321100
     18 C15         -1.6290     2.3760     0.5030 c3         1 GWI       0.078600
     19 C16         -0.4960     1.3970     0.7830 c          1 GWI       0.599100
     20 O3          -0.5160     0.6610     1.7420 o          1 GWI      -0.526100
     21 N1           0.5040     1.4610    -0.1390 ns         1 GWI      -0.152000
     22 C17          1.6750     0.7120    -0.2130 ca         1 GWI       0.037000
     23 C18          2.5490     0.9970    -1.2820 ca         1 GWI      -0.152300
     24 C23          2.2410     2.0750    -2.2790 c3         1 GWI      -0.053800
     25 C19          3.7090     0.2550    -1.4040 ca         1 GWI       0.012000
     26 C20          4.0120    -0.7440    -0.4860 ca         1 GWI      -0.327500
     27 C21          3.1580    -1.0240     0.5640 ca         1 GWI       0.039000
     28 C22          1.9880    -0.2980     0.6990 ca         1 GWI      -0.169000
     29 N3           6.6980    -0.5840    -0.1780 ns         1 GWI      -0.593300
     30 C14          6.7870    -0.0890     1.1040 c          1 GWI       0.630100
     31 C24          7.8850     0.9270     1.2870 c3         1 GWI      -0.158400
     32 S            5.5060    -1.6480    -0.6850 sy         1 GWI       1.189300
     33 O4           5.4890    -2.7980     0.1950 o          1 GWI      -0.528000
     34 C25          8.1460     1.2740     2.7410 c3         1 GWI      -0.080100
     35 O6           6.0230    -0.4430     1.9710 o          1 GWI      -0.546100
     36 O5           5.7790    -1.8220    -2.1000 o          1 GWI      -0.528000
     37 C26         -0.8080    -0.6420    -2.5660 cg         1 GWI       0.323000
     38 N2          -0.3470    -0.2930    -3.5620 n1         1 GWI      -0.450000
     39 H3          -6.8230     0.2970    -0.2380 ha         1 GWI       0.149000
     40 H6          -3.6860     4.1170     0.0190 ha         1 GWI       0.126000
     41 H5          -5.9130     4.4210    -0.9570 ha         1 GWI       0.135000
     42 H9          -2.8430    -2.1500     2.0620 ha         1 GWI       0.153000
     43 H11          0.2990    -2.3350    -0.8430 ha         1 GWI       0.146000
     44 H13         -3.1300     0.1410    -1.5570 ha         1 GWI       0.128000
     45 H15         -1.7300     2.5760    -0.5680 h1         1 GWI       0.059700
     46 H15A        -1.4060     3.3280     0.9980 h1         1 GWI       0.059700
     47 HN1          0.3850     2.1550    -0.8610 hn         1 GWI       0.157000
     48 H23          2.1510     3.0550    -1.8040 hc         1 GWI       0.046700
     49 H23A         3.0340     2.1500    -3.0200 hc         1 GWI       0.046700
     50 H23B         1.3140     1.8810    -2.8220 hc         1 GWI       0.046700
     51 H19          4.3790     0.4680    -2.2270 ha         1 GWI       0.128000
     52 H21          3.3810    -1.8010     1.2810 ha         1 GWI       0.154000
     53 H22          1.3250    -0.5230     1.5170 ha         1 GWI       0.158000
     54 HN3          7.3180    -0.2440    -0.9040 hn         1 GWI       0.343500
     55 H24          8.7940     0.5590     0.8060 hc         1 GWI       0.062200
     56 H24A         7.5950     1.8220     0.7260 hc         1 GWI       0.062200
     57 H25          7.2600     1.6820     3.2250 hc         1 GWI       0.046367
     58 H25A         8.4700     0.4020     3.3090 hc         1 GWI       0.046367
     59 H25B         8.9330     2.0230     2.8050 hc         1 GWI       0.046367
@<TRIPOS>BOND
     1     1     2 ar  
     2     1     4 ar  
     3     1    17 1   
     4     2     3 ar  
     5     2     8 1   
     6     3     5 ar  
     7     3    39 1   
     8     4     6 ar  
     9     4    40 1   
    10     5     6 ar  
    11     5     7 1   
    12     6    41 1   
    13     8     9 2   
    14     8    10 1   
    15    10    11 ar  
    16    10    15 ar  
    17    11    12 ar  
    18    11    42 1   
    19    12    13 ar  
    20    12    16 1   
    21    13    14 ar  
    22    13    43 1   
    23    14    15 ar  
    24    14    37 1   
    25    15    44 1   
    26    17    18 1   
    27    18    19 1   
    28    18    45 1   
    29    18    46 1   
    30    19    20 2   
    31    19    21 1   
    32    21    22 1   
    33    21    47 1   
    34    22    23 ar  
    35    22    28 ar  
    36    23    24 1   
    37    23    25 ar  
    38    24    48 1   
    39    24    49 1   
    40    24    50 1   
    41    25    26 ar  
    42    25    51 1   
    43    26    27 ar  
    44    26    32 1   
    45    27    28 ar  
    46    27    52 1   
    47    28    53 1   
    48    29    30 1   
    49    29    32 1   
    50    29    54 1   
    51    30    31 1   
    52    30    35 2   
    53    31    34 1   
    54    31    55 1   
    55    31    56 1   
    56    32    33 2   
    57    32    36 2   
    58    34    57 1   
    59    34    58 1   
    60    34    59 1   
    61    37    38 3   
@<TRIPOS>SUBSTRUCTURE
     1 GWI         1 TEMP              0 ****  ****    0 ROOT
