@<TRIPOS>MOLECULE
GWI
   59    61     1     0     0
SMALL
No Charge or Current Charge


@<TRIPOS>ATOM
      1 C1          -4.2270     1.9500     0.2360 ca         1 GWI       0.153100
      2 C2          -5.1160     0.8540     0.2710 ca         1 GWI      -0.180600
      3 C3          -6.4320     1.0170    -0.2110 ca         1 GWI      -0.033000
      4 C6          -4.6360     3.1800    -0.3130 ca         1 GWI      -0.173000
      5 C4          -6.8410     2.2480    -0.7520 ca         1 GWI       0.088000
      6 C5          -5.9440     3.3270    -0.8110 ca         1 GWI      -0.055000
      7 Cl          -8.4790     2.4360    -1.3640 cl         1 GWI      -0.183000
      8 C7          -4.6770    -0.4800     0.8160 c          1 GWI       0.609300
      9 O1          -5.4120    -1.1200     1.5580 o          1 GWI      -0.493100
     10 C8          -3.3210    -1.0200     0.4190 ca         1 GWI      -0.144600
     11 C9          -2.5800    -1.8070     1.3260 ca         1 GWI      -0.017000
     12 C10         -1.2980    -2.2690     0.9810 ca         1 GWI       0.110000
     13 C11         -0.7480    -1.9640    -0.2740 ca         1 GWI      -0.046000
     14 C12         -1.4830    -1.1960    -1.1950 ca         1 GWI      -0.030000
     15 C13         -2.7670    -0.7300    -0.8510 ca         1 GWI      -0.054000
     16 Cl1         -0.3690    -3.2200     2.1320 cl         1 GWI      -0.170000
     17 O2          -2.9730     1.7970     0.7770 os         1 GWI      -0.321100
     18 C15         -1.8130     2.4450     0.2160 c3         1 GWI       0.078600
     19 C16         -0.5260     1.7420     0.6990 c          1 GWI       0.599100
     20 O3          -0.4270     1.2570     1.8220 o          1 GWI      -0.526100
     21 N1           0.4620     1.6520    -0.2720 ns         1 GWI      -0.152000
     22 C17          1.6970     0.9460    -0.3150 ca         1 GWI       0.037000
     23 C18          2.5790     1.1970    -1.3930 ca         1 GWI      -0.152300
     24 C23          2.2320     2.2230    -2.4710 c3         1 GWI      -0.053800
     25 C19          3.7980     0.4950    -1.4830 ca         1 GWI       0.012000
     26 C20          4.1430    -0.4630    -0.5120 ca         1 GWI      -0.327500
     27 C21          3.2670    -0.7210     0.5560 ca         1 GWI       0.039000
     28 C22          2.0520    -0.0230     0.6490 ca         1 GWI      -0.169000
     29 N3           6.8230    -0.3420     0.0970 ns         1 GWI      -0.593300
     30 C14          6.8620     0.0500     1.3970 c          1 GWI       0.630100
     31 C24          8.0070     1.0060     1.7430 c3         1 GWI      -0.158400
     32 S            5.7060    -1.3470    -0.6340 sy         1 GWI       1.189300
     33 O4           5.6310    -2.5570     0.1930 o          1 GWI      -0.528000
     34 C25          9.1060     0.3060     2.5730 c3         1 GWI      -0.080100
     35 O6           6.0360    -0.3000     2.2250 o          1 GWI      -0.546100
     36 O5           6.1110    -1.4050    -2.0420 o          1 GWI      -0.528000
     37 C26         -0.9200    -0.8780    -2.4790 cg         1 GWI       0.323000
     38 N2          -0.4650    -0.6070    -3.5190 n1         1 GWI      -0.450000
     39 H3          -7.1360     0.1870    -0.1810 ha         1 GWI       0.149000
     40 H6          -3.9600     4.0300    -0.3380 ha         1 GWI       0.126000
     41 H5          -6.2650     4.2770    -1.2300 ha         1 GWI       0.135000
     42 H9          -2.9840    -2.0430     2.3080 ha         1 GWI       0.153000
     43 H11          0.2480    -2.3240    -0.5260 ha         1 GWI       0.146000
     44 H13         -3.3310    -0.1360    -1.5680 ha         1 GWI       0.128000
     45 H15         -1.8400     2.3890    -0.8800 h1         1 GWI       0.059700
     46 H15A        -1.7630     3.5020     0.5070 h1         1 GWI       0.059700
     47 HN1          0.2440     2.1360    -1.1330 hn         1 GWI       0.157000
     48 H23          2.0630     3.2150    -2.0340 hc         1 GWI       0.046700
     49 H23A         3.0350     2.3270    -3.2100 hc         1 GWI       0.046700
     50 H23B         1.3260     1.9330    -3.0150 hc         1 GWI       0.046700
     51 H19          4.4750     0.6980    -2.3120 ha         1 GWI       0.128000
     52 H21          3.5180    -1.4580     1.3180 ha         1 GWI       0.154000
     53 H22          1.3970    -0.2640     1.4800 ha         1 GWI       0.158000
     54 HN3          7.5110    -0.0060    -0.5550 hn         1 GWI       0.343500
     55 H24          8.4660     1.3980     0.8270 hc         1 GWI       0.062200
     56 H24A         7.6050     1.8350     2.3380 hc         1 GWI       0.062200
     57 H25          8.6970    -0.0780     3.5160 hc         1 GWI       0.046367
     58 H25A         9.5370    -0.5350     2.0160 hc         1 GWI       0.046367
     59 H25B         9.9140     1.0090     2.8120 hc         1 GWI       0.046367
@<TRIPOS>BOND
     1     1     2 ar  
     2     1     4 ar  
     3     1    17 1   
     4     2     3 ar  
     5     2     8 1   
     6     3     5 ar  
     7     3    39 1   
     8     4     6 ar  
     9     4    40 1   
    10     5     6 ar  
    11     5     7 1   
    12     6    41 1   
    13     8     9 2   
    14     8    10 1   
    15    10    11 ar  
    16    10    15 ar  
    17    11    12 ar  
    18    11    42 1   
    19    12    13 ar  
    20    12    16 1   
    21    13    14 ar  
    22    13    43 1   
    23    14    15 ar  
    24    14    37 1   
    25    15    44 1   
    26    17    18 1   
    27    18    19 1   
    28    18    45 1   
    29    18    46 1   
    30    19    20 2   
    31    19    21 1   
    32    21    22 1   
    33    21    47 1   
    34    22    23 ar  
    35    22    28 ar  
    36    23    24 1   
    37    23    25 ar  
    38    24    48 1   
    39    24    49 1   
    40    24    50 1   
    41    25    26 ar  
    42    25    51 1   
    43    26    27 ar  
    44    26    32 1   
    45    27    28 ar  
    46    27    52 1   
    47    28    53 1   
    48    29    30 1   
    49    29    32 1   
    50    29    54 1   
    51    30    31 1   
    52    30    35 2   
    53    31    34 1   
    54    31    55 1   
    55    31    56 1   
    56    32    33 2   
    57    32    36 2   
    58    34    57 1   
    59    34    58 1   
    60    34    59 1   
    61    37    38 3   
@<TRIPOS>SUBSTRUCTURE
     1 GWI         1 TEMP              0 ****  ****    0 ROOT
