@<TRIPOS>MOLECULE
GWJ
   51    53     1     0     0
SMALL
No Charge or Current Charge


@<TRIPOS>ATOM
      1 C1          -3.3270     1.9020     0.5140 ca         1 GWJ       0.153100
      2 C2          -4.2270     0.8250     0.3710 ca         1 GWJ      -0.180600
      3 C3          -5.5200     1.0690    -0.1400 ca         1 GWJ      -0.033000
      4 C6          -3.7000     3.1990     0.1110 ca         1 GWJ      -0.174000
      5 C4          -5.8920     2.3650    -0.5350 ca         1 GWJ       0.088000
      6 C5          -4.9830     3.4280    -0.4170 ca         1 GWJ      -0.054000
      7 Cl          -7.5010     2.6550    -1.1850 cl         1 GWJ      -0.183000
      8 C7          -3.8260    -0.5750     0.7580 c          1 GWJ       0.610300
      9 O1          -4.6000    -1.2930     1.3790 o          1 GWJ      -0.492100
     10 C8          -2.4600    -1.0810     0.3520 ca         1 GWJ      -0.145600
     11 C9          -1.7690    -1.9920     1.1800 ca         1 GWJ      -0.017000
     12 C10         -0.4790    -2.4270     0.8340 ca         1 GWJ       0.109000
     13 C11          0.1320    -1.9710    -0.3450 ca         1 GWJ      -0.046000
     14 C12         -0.5520    -1.0780    -1.1890 ca         1 GWJ      -0.029000
     15 C13         -1.8460    -0.6390    -0.8430 ca         1 GWJ      -0.054000
     16 Cl1          0.3870    -3.5360     1.8910 cl         1 GWJ      -0.172000
     17 O2          -2.0990     1.6610     1.0820 os         1 GWJ      -0.322100
     18 C15         -0.9100     2.3610     0.6600 c3         1 GWJ       0.079600
     19 C16          0.3490     1.5830     1.1000 c          1 GWJ       0.598100
     20 O3           0.3970     0.9560     2.1530 o          1 GWJ      -0.529100
     21 N1           1.3770     1.6070     0.1670 ns         1 GWJ      -0.152000
     22 C17          2.6080     0.8960     0.0830 ca         1 GWJ       0.034000
     23 C18          3.5380     1.2750    -0.9140 ca         1 GWJ      -0.151300
     24 C23          3.2450     2.4380    -1.8620 c3         1 GWJ      -0.053800
     25 C19          4.7540     0.5750    -1.0450 ca         1 GWJ       0.013000
     26 C20          5.0500    -0.5060    -0.1940 ca         1 GWJ      -0.303500
     27 C21          4.1240    -0.8930     0.7900 ca         1 GWJ       0.025000
     28 C22          2.9120    -0.1970     0.9240 ca         1 GWJ      -0.168000
     29 N3           7.5430    -0.6130     0.7160 n8         1 GWJ      -1.000100
     30 S            6.5960    -1.3960    -0.3620 sy         1 GWJ       1.130600
     31 O4           6.4660    -2.7570     0.1610 o          1 GWJ      -0.545000
     32 O5           7.2110    -1.0940    -1.6510 o          1 GWJ      -0.545000
     33 C26          0.0720    -0.6060    -2.3940 cg         1 GWJ       0.323000
     34 N2           0.5770    -0.2100    -3.3690 n1         1 GWJ      -0.450000
     35 H3          -6.2320     0.2530    -0.2460 ha         1 GWJ       0.148000
     36 H6          -3.0150     4.0340     0.2240 ha         1 GWJ       0.126000
     37 H5          -5.2770     4.4290    -0.7230 ha         1 GWJ       0.135000
     38 H9          -2.2200    -2.3470     2.1050 ha         1 GWJ       0.153000
     39 H11          1.1330    -2.3120    -0.5980 ha         1 GWJ       0.148000
     40 H13         -2.3700     0.0520    -1.5010 ha         1 GWJ       0.129000
     41 H15         -0.8890     2.4490    -0.4340 h1         1 GWJ       0.060200
     42 H15A        -0.8640     3.3700     1.0890 h1         1 GWJ       0.060200
     43 HN1          1.2000     2.2020    -0.6320 hn         1 GWJ       0.157000
     44 H23          3.0630     3.3660    -1.3070 hc         1 GWJ       0.047033
     45 H23A         4.0800     2.6280    -2.5460 hc         1 GWJ       0.047033
     46 H23B         2.3610     2.2320    -2.4780 hc         1 GWJ       0.047033
     47 H19          5.4650     0.8740    -1.8150 ha         1 GWJ       0.139000
     48 H21          4.3350    -1.7310     1.4520 ha         1 GWJ       0.141000
     49 H22          2.2170    -0.5380     1.6840 ha         1 GWJ       0.156000
     50 HN3          8.3450    -0.3820     0.1340 hn         1 GWJ       0.471500
     51 HN3A         7.0560     0.2730     0.8240 hn         1 GWJ       0.471500
@<TRIPOS>BOND
     1     1     2 ar  
     2     1     4 ar  
     3     1    17 1   
     4     2     3 ar  
     5     2     8 1   
     6     3     5 ar  
     7     3    35 1   
     8     4     6 ar  
     9     4    36 1   
    10     5     6 ar  
    11     5     7 1   
    12     6    37 1   
    13     8     9 2   
    14     8    10 1   
    15    10    11 ar  
    16    10    15 ar  
    17    11    12 ar  
    18    11    38 1   
    19    12    13 ar  
    20    12    16 1   
    21    13    14 ar  
    22    13    39 1   
    23    14    15 ar  
    24    14    33 1   
    25    15    40 1   
    26    17    18 1   
    27    18    19 1   
    28    18    41 1   
    29    18    42 1   
    30    19    20 2   
    31    19    21 1   
    32    21    22 1   
    33    21    43 1   
    34    22    23 ar  
    35    22    28 ar  
    36    23    24 1   
    37    23    25 ar  
    38    24    44 1   
    39    24    45 1   
    40    24    46 1   
    41    25    26 ar  
    42    25    47 1   
    43    26    27 ar  
    44    26    30 1   
    45    27    28 ar  
    46    27    48 1   
    47    28    49 1   
    48    29    30 1   
    49    29    50 1   
    50    29    51 1   
    51    30    31 2   
    52    30    32 2   
    53    33    34 3   
@<TRIPOS>SUBSTRUCTURE
     1 GWJ         1 TEMP              0 ****  ****    0 ROOT
