@<TRIPOS>MOLECULE
GWJ
   51    53     1     0     0
SMALL
bcc


@<TRIPOS>ATOM
      1 C1          -3.2430     1.9340     0.5620 ca         1 GWJ       0.153100
      2 C2          -4.0590     0.8110     0.4070 ca         1 GWJ      -0.180600
      3 C3          -5.3320     0.9490    -0.1350 ca         1 GWJ      -0.051000
      4 C6          -3.6770     3.1760     0.1140 ca         1 GWJ      -0.192000
      5 C4          -5.7520     2.1890    -0.5780 ca         1 GWJ      -0.003600
      6 C5          -4.9290     3.3010    -0.4650 ca         1 GWJ      -0.072000
      7 CL          -7.3210     2.3560    -1.2890 cl         1 GWJ      -0.091400
      8 C7          -3.5910    -0.5400     0.8270 c          1 GWJ       0.610300
      9 O1          -4.2960    -1.2780     1.4740 o          1 GWJ      -0.492100
     10 C8          -2.2360    -0.9760     0.3790 ca         1 GWJ      -0.145600
     11 C9          -1.5230    -1.8790     1.1610 ca         1 GWJ      -0.035000
     12 C10         -0.2620    -2.2830     0.7590 ca         1 GWJ       0.017400
     13 C11          0.2950    -1.8360    -0.4260 ca         1 GWJ      -0.064000
     14 C12         -0.4390    -0.9490    -1.2080 ca         1 GWJ      -0.029000
     15 C13         -1.6970    -0.5090    -0.8110 ca         1 GWJ      -0.072000
     16 CL1          0.6590    -3.3360     1.7680 cl         1 GWJ      -0.080400
     17 O2          -2.0760     1.7430     1.2060 os         1 GWJ      -0.298900
     18 C15         -0.9240     2.4170     0.7500 c3         1 GWJ       0.056400
     19 C16          0.2460     1.4810     1.0240 c          1 GWJ       0.665100
     20 O3           0.2330     0.7080     1.9550 o          1 GWJ      -0.529100
     21 N1           1.2660     1.6210     0.1340 ns         1 GWJ      -0.478100
     22 C17          2.4670     0.9190     0.0600 ca         1 GWJ       0.126600
     23 C18          3.3560     1.2770    -0.9700 ca         1 GWJ      -0.151300
     24 C23          3.0400     2.3910    -1.9240 c3         1 GWJ      -0.053800
     25 C19          4.5440     0.5750    -1.0960 ca         1 GWJ      -0.005000
     26 C20          4.8550    -0.4570    -0.2240 ca         1 GWJ      -0.303500
     27 C21          3.9830    -0.8060     0.7940 ca         1 GWJ       0.007000
     28 C22          2.7930    -0.1190     0.9380 ca         1 GWJ      -0.186000
     29 N3           7.2520    -0.7570     0.8480 n8         1 GWJ      -0.889700
     30 S            6.3640    -1.3500    -0.4140 sy         1 GWJ       1.272200
     31 O4           6.1400    -2.7570    -0.1120 o          1 GWJ      -0.615800
     32 O5           6.9270    -1.0060    -1.7130 o          1 GWJ      -0.615800
     33 C26          0.1330    -0.4540    -2.4190 cg         1 GWJ       0.233800
     34 N2           0.6030    -0.0350    -3.3840 n1         1 GWJ      -0.360800
     35 H3          -5.9710     0.0810    -0.2410 ha         1 GWJ       0.166000
     36 H6          -3.0550     4.0550     0.2280 ha         1 GWJ       0.144000
     37 H5          -5.2630     4.2680    -0.8140 ha         1 GWJ       0.153000
     38 H9          -1.9380    -2.2380     2.0930 ha         1 GWJ       0.171000
     39 H11          1.2780    -2.1610    -0.7360 ha         1 GWJ       0.166000
     40 H13         -2.2480     0.1760    -1.4420 ha         1 GWJ       0.147000
     41 H15         -1.0000     2.6640    -0.3130 h1         1 GWJ       0.060200
     42 H15A        -0.7680     3.3530     1.2980 h1         1 GWJ       0.060200
     43 HN1          1.1380     2.3370    -0.5650 hn         1 GWJ       0.323500
     44 H23          2.8890     3.3410    -1.4080 hc         1 GWJ       0.047033
     45 H23A         3.8570     2.5330    -2.6290 hc         1 GWJ       0.047033
     46 H23B         2.1440     2.1840    -2.5130 hc         1 GWJ       0.047033
     47 H19          5.2270     0.8470    -1.8910 ha         1 GWJ       0.157000
     48 H21          4.2110    -1.6100     1.4810 ha         1 GWJ       0.159000
     49 H22          2.1200    -0.4020     1.7290 ha         1 GWJ       0.174000
     50 HN3          8.0420    -1.3600     1.0600 hn         1 GWJ       0.416300
     51 HN3A         7.5740     0.1920     0.6850 hn         1 GWJ       0.416300
@<TRIPOS>BOND
     1     1     2 ar  
     2     1     4 ar  
     3     1    17 1   
     4     2     3 ar  
     5     2     8 1   
     6     3     5 ar  
     7     3    35 1   
     8     4     6 ar  
     9     4    36 1   
    10     5     6 ar  
    11     5     7 1   
    12     6    37 1   
    13     8     9 2   
    14     8    10 1   
    15    10    11 ar  
    16    10    15 ar  
    17    11    12 ar  
    18    11    38 1   
    19    12    13 ar  
    20    12    16 1   
    21    13    14 ar  
    22    13    39 1   
    23    14    15 ar  
    24    14    33 1   
    25    15    40 1   
    26    17    18 1   
    27    18    19 1   
    28    18    41 1   
    29    18    42 1   
    30    19    20 2   
    31    19    21 1   
    32    21    22 1   
    33    21    43 1   
    34    22    23 ar  
    35    22    28 ar  
    36    23    24 1   
    37    23    25 ar  
    38    24    44 1   
    39    24    45 1   
    40    24    46 1   
    41    25    26 ar  
    42    25    47 1   
    43    26    27 ar  
    44    26    30 1   
    45    27    28 ar  
    46    27    48 1   
    47    28    49 1   
    48    29    30 1   
    49    29    50 1   
    50    29    51 1   
    51    30    31 2   
    52    30    32 2   
    53    33    34 3   
@<TRIPOS>SUBSTRUCTURE
     1 GWJ         1 TEMP              0 ****  ****    0 ROOT
