@<TRIPOS>MOLECULE
GWK
   95    97     1     0     0
SMALL
No Charge or Current Charge


@<TRIPOS>ATOM
      1 C4           6.2930    -2.2150     2.8620 c6         1 GWK      -0.068900
      2 C5           6.4450    -1.5370     1.4780 c6         1 GWK      -0.071900
      3 C6           5.2190    -0.6440     1.1390 c6         1 GWK      -0.062700
      4 C7           5.3900     0.0180    -0.2690 c3         1 GWK      -0.087400
      5 C8           4.2250     0.9250    -0.7620 c3         1 GWK       0.075700
      6 C24          0.5770    -0.1570     0.0670 c3         1 GWK       0.035700
      7 C32         -6.7870    -0.3870    -1.0630 c6         1 GWK       0.122300
      8 C33         -7.5410    -0.0710    -2.3890 c6         1 GWK       0.154600
      9 O34         -8.0500     1.2850    -2.3650 os         1 GWK      -0.452000
     10 C35         -7.0050     2.2700    -2.1800 c6         1 GWK       0.154600
     11 C36         -6.2370     2.0020    -0.8510 c6         1 GWK       0.122300
     12 N31         -5.7000     0.6050    -0.7970 n3         1 GWK      -0.694600
     13 C30         -4.9360     0.3010     0.4580 c3         1 GWK       0.086800
     14 O37         -3.0630     1.8400    -0.0260 o          1 GWK      -0.591100
     15 N28         -3.0690     0.8180     1.9990 ns         1 GWK      -0.514900
     16 C27         -1.8940     1.5120     2.5860 c3         1 GWK       0.039700
     17 C38         -2.0070     1.4970     4.1270 c3         1 GWK      -0.096100
     18 O39          0.4370     0.7480     2.7800 o          1 GWK      -0.614100
     19 N25         -0.5380     0.5360     0.7440 ns         1 GWK      -0.484900
     20 C40          0.0770    -0.8610    -1.2210 c3         1 GWK      -0.031100
     21 C41         -1.2230    -1.6460    -1.0390 ca         1 GWK      -0.126300
     22 C42         -2.2980    -1.4400    -1.9260 ca         1 GWK      -0.066000
     23 C43         -3.4940    -2.1600    -1.7690 ca         1 GWK      -0.170500
     24 C44         -3.6370    -3.0860    -0.7250 ca         1 GWK       0.130100
     25 O45         -4.8400    -3.7530    -0.6140 os         1 GWK      -0.348100
     26 C46         -5.0980    -4.7000     0.4370 c3         1 GWK       0.147900
     27 C47         -2.5630    -3.2970     0.1660 ca         1 GWK      -0.170500
     28 C48         -1.3620    -2.5830     0.0040 ca         1 GWK      -0.066000
     29 N22          2.9460     0.2170    -0.5530 ns         1 GWK      -0.509900
     30 C1           4.9950     0.4050     2.2680 c6         1 GWK      -0.071900
     31 C2           4.8470    -0.2720     3.6530 c6         1 GWK      -0.068900
     32 C3           6.0710    -1.1670     3.9840 c6         1 GWK      -0.064700
     33 C50          5.9200    -1.8440     5.3720 c3         1 GWK      -0.085100
     34 C9           4.3470     1.4580    -2.2410 c3         1 GWK       0.142300
     35 O21          3.1720     2.2430    -2.5230 oh         1 GWK      -0.652000
     36 H1           5.4510    -2.9200     2.8350 hc         1 GWK       0.037200
     37 H2           7.1910    -2.8100     3.0780 hc         1 GWK       0.037200
     38 H3           7.3630    -0.9330     1.4650 hc         1 GWK       0.041700
     39 H4           6.5700    -2.3090     0.7060 hc         1 GWK       0.041700
     40 H5           4.3360    -1.2970     1.0890 hc         1 GWK       0.056700
     41 H6           6.3080     0.6150    -0.2430 hc         1 GWK       0.053200
     42 H7           5.5530    -0.7670    -1.0170 hc         1 GWK       0.053200
     43 H8           4.2180     1.8050    -0.1050 h1         1 GWK       0.096700
     44 H9           0.9690    -0.9200     0.7530 h1         1 GWK       0.073700
     45 H11         -6.3720    -1.4030    -1.1270 h1         1 GWK       0.044950
     46 H12         -6.8610    -0.1900    -3.2450 h1         1 GWK       0.053700
     47 H13         -8.3800    -0.7690    -2.5180 h1         1 GWK       0.053700
     48 H14         -6.3090     2.2260    -3.0300 h1         1 GWK       0.053700
     49 H15         -7.4540     3.2730    -2.1570 h1         1 GWK       0.053700
     50 H16         -5.4230     2.7360    -0.7660 h1         1 GWK       0.044950
     51 H17         -6.9210     2.1810    -0.0080 h1         1 GWK       0.044950
     52 H19         -5.5900     0.4520     1.3270 h1         1 GWK       0.051700
     53 H20         -4.6580    -0.7600     0.4670 h1         1 GWK       0.051700
     54 H21         -3.5660     0.1500     2.5780 hn         1 GWK       0.319500
     55 H22         -1.9170     2.5580     2.2510 h1         1 GWK       0.088700
     56 H23         -1.1920     2.0730     4.5810 hc         1 GWK       0.052367
     57 H24         -2.9560     1.9430     4.4480 hc         1 GWK       0.052367
     58 H25         -1.9600     0.4710     4.5120 hc         1 GWK       0.052367
     59 H26         -1.3770     0.7530     0.2140 hn         1 GWK       0.342500
     60 H27         -0.0560    -0.0970    -1.9980 hc         1 GWK       0.066700
     61 H28          0.8620    -1.5310    -1.5920 hc         1 GWK       0.066700
     62 H29         -2.2120    -0.7220    -2.7390 ha         1 GWK       0.118000
     63 H30         -4.3190    -1.9920    -2.4560 ha         1 GWK       0.129500
     64 H31         -6.1120    -5.1070     0.3420 h1         1 GWK       0.040700
     65 H32         -4.3900    -5.5380     0.3910 h1         1 GWK       0.040700
     66 H33         -5.0140    -4.2220     1.4220 h1         1 GWK       0.040700
     67 H34         -2.6380    -4.0080     0.9830 ha         1 GWK       0.129500
     68 H35         -0.5400    -2.7610     0.6940 ha         1 GWK       0.118000
     69 H36          2.9580    -0.7960    -0.5560 hn         1 GWK       0.314500
     70 H37          5.8340     1.1140     2.2920 hc         1 GWK       0.041700
     71 H38          4.0920     0.9960     2.0680 hc         1 GWK       0.041700
     72 H39          4.7270     0.5000     4.4260 hc         1 GWK       0.037200
     73 H40          3.9280    -0.8740     3.6700 hc         1 GWK       0.037200
     74 H41          6.9630    -0.5280     4.0490 hc         1 GWK       0.045700
     75 H42          6.8040    -2.4460     5.6170 hc         1 GWK       0.030367
     76 H43          5.8000    -1.0970     6.1660 hc         1 GWK       0.030367
     77 H44          5.0460    -2.5060     5.4010 hc         1 GWK       0.030367
     78 H45          4.3350     0.5770    -2.8970 h1         1 GWK       0.016700
     79 H46          2.6170     2.2130    -1.7030 ho         1 GWK       0.448000
     80 H47          4.7720     3.5590    -4.1910 hc         1 GWK       0.046200
     81 H48          6.5120     3.2970    -4.3670 hc         1 GWK       0.046200
     82 H49          5.3740     1.9960    -4.7750 hc         1 GWK       0.046200
     83 H50          6.0480     3.1390    -0.6220 hc         1 GWK       0.046200
     84 H51          6.7490     4.0710    -1.9520 hc         1 GWK       0.046200
     85 H52          5.0070     4.1580    -1.6380 hc         1 GWK       0.046200
     86 H53          6.7600     0.8440    -3.3080 ho         1 GWK       0.439000
     87 C10          5.6420     2.2970    -2.6140 c3         1 GWK       0.196000
     88 C23          1.7460     0.8200    -0.2440 c          1 GWK       0.581100
     89 C11          5.5700     2.8170    -4.0740 c3         1 GWK      -0.097100
     90 C12          5.8730     3.4860    -1.6470 c3         1 GWK      -0.097100
     91 O13          6.8110     1.4690    -2.5540 oh         1 GWK      -0.661000
     92 C26         -0.5410     0.9250     2.0640 c          1 GWK       0.580100
     93 O49          1.6390     2.0400    -0.2520 o          1 GWK      -0.590100
     94 C29         -3.6160     1.0770     0.7580 c          1 GWK       0.604100
     95 H10         -7.5140    -0.3890    -0.2370 h1         1 GWK       0.044950
@<TRIPOS>BOND
     1     1     2 1   
     2     1    32 1   
     3     1    36 1   
     4     1    37 1   
     5     2     3 1   
     6     2    38 1   
     7     2    39 1   
     8     3     4 1   
     9     3    30 1   
    10     3    40 1   
    11     4     5 1   
    12     4    41 1   
    13     4    42 1   
    14     5    29 1   
    15     5    34 1   
    16     5    43 1   
    17     6    19 1   
    18     6    20 1   
    19     6    44 1   
    20     6    88 1   
    21     7     8 1   
    22     7    12 1   
    23     7    45 1   
    24     7    95 1   
    25     8     9 1   
    26     8    46 1   
    27     8    47 1   
    28     9    10 1   
    29    10    11 1   
    30    10    48 1   
    31    10    49 1   
    32    11    12 1   
    33    11    50 1   
    34    11    51 1   
    35    12    13 1   
    36    13    52 1   
    37    13    53 1   
    38    13    94 1   
    39    14    94 2   
    40    15    16 1   
    41    15    54 1   
    42    15    94 1   
    43    16    17 1   
    44    16    55 1   
    45    16    92 1   
    46    17    56 1   
    47    17    57 1   
    48    17    58 1   
    49    18    92 2   
    50    19    59 1   
    51    19    92 1   
    52    20    21 1   
    53    20    60 1   
    54    20    61 1   
    55    21    22 ar  
    56    21    28 ar  
    57    22    23 ar  
    58    22    62 1   
    59    23    24 ar  
    60    23    63 1   
    61    24    25 1   
    62    24    27 ar  
    63    25    26 1   
    64    26    64 1   
    65    26    65 1   
    66    26    66 1   
    67    27    28 ar  
    68    27    67 1   
    69    28    68 1   
    70    29    69 1   
    71    29    88 1   
    72    30    31 1   
    73    30    70 1   
    74    30    71 1   
    75    31    32 1   
    76    31    72 1   
    77    31    73 1   
    78    32    33 1   
    79    32    74 1   
    80    33    75 1   
    81    33    76 1   
    82    33    77 1   
    83    34    35 1   
    84    34    78 1   
    85    34    87 1   
    86    35    79 1   
    87    80    89 1   
    88    81    89 1   
    89    82    89 1   
    90    83    90 1   
    91    84    90 1   
    92    85    90 1   
    93    86    91 1   
    94    87    89 1   
    95    87    90 1   
    96    87    91 1   
    97    88    93 2   
@<TRIPOS>SUBSTRUCTURE
     1 GWK         1 TEMP              0 ****  ****    0 ROOT
