@<TRIPOS>MOLECULE
GWK
   95    97     1     0     0
SMALL
abcg2


@<TRIPOS>ATOM
      1 C4           4.1070     0.2900     4.0170 c6         1 GWK      -0.068900
      2 C5           4.8730    -0.2170     2.8010 c6         1 GWK      -0.071900
      3 C6           4.3270     0.3740     1.5020 c6         1 GWK      -0.062700
      4 C7           5.1010    -0.1700     0.3030 c3         1 GWK      -0.087400
      5 C8           4.5320     0.2320    -1.0580 c3         1 GWK       0.075700
      6 C24          0.7200    -0.0670    -1.1630 c3         1 GWK       0.035700
      7 C32         -6.5440    -1.0540     0.6620 c6         1 GWK       0.122300
      8 C33         -7.8180    -0.3110     0.3110 c6         1 GWK       0.154600
      9 O34         -8.2960     0.4440     1.4020 os         1 GWK      -0.452000
     10 C35         -7.3170     1.3570     1.8470 c6         1 GWK       0.154600
     11 C36         -6.0300     0.6550     2.2340 c6         1 GWK       0.122300
     12 N31         -5.5290    -0.1150     1.1080 n3         1 GWK      -0.694600
     13 C30         -4.2940    -0.7860     1.4040 c3         1 GWK       0.086800
     14 O37         -3.0900     1.2710     1.0050 o          1 GWK      -0.591100
     15 N28         -2.0680    -0.3610     2.1880 ns         1 GWK      -0.514900
     16 C27         -0.7760     0.2830     2.3110 c3         1 GWK       0.039700
     17 C38         -0.1960     0.0510     3.6940 c3         1 GWK      -0.096100
     18 O39          0.8920    -1.1990     1.3930 o          1 GWK      -0.614100
     19 N25          0.0050     0.3550     0.0190 ns         1 GWK      -0.484900
     20 C40         -0.0740     0.2590    -2.4310 c3         1 GWK      -0.031100
     21 C41         -1.3820    -0.4770    -2.4880 ca         1 GWK      -0.126300
     22 C42         -2.5660     0.1180    -2.0580 ca         1 GWK      -0.066000
     23 C43         -3.7650    -0.5720    -2.0630 ca         1 GWK      -0.170500
     24 C44         -3.8110    -1.8900    -2.5160 ca         1 GWK       0.130100
     25 O45         -5.0190    -2.4910    -2.4940 os         1 GWK      -0.348100
     26 C46         -5.1110    -3.8360    -2.9150 c3         1 GWK       0.147900
     27 C47         -2.6380    -2.5010    -2.9550 ca         1 GWK      -0.170500
     28 C48         -1.4440    -1.7910    -2.9330 ca         1 GWK      -0.066000
     29 N22          3.1400    -0.1910    -1.1410 ns         1 GWK      -0.509900
     30 C1           4.3540     1.9010     1.5810 c6         1 GWK      -0.071900
     31 C2           3.5950     2.4150     2.7990 c6         1 GWK      -0.068900
     32 C3           4.1110     1.8150     4.1050 c6         1 GWK      -0.064700
     33 C50          3.3080     2.3090     5.3010 c3         1 GWK      -0.085100
     34 C9           5.2710    -0.3660    -2.2760 c3         1 GWK       0.142300
     35 O21          4.5810    -0.0220    -3.4550 oh         1 GWK      -0.652000
     36 H1           3.0690    -0.0610     3.9570 hc         1 GWK       0.037200
     37 H2           4.5240    -0.1380     4.9340 hc         1 GWK       0.037200
     38 H3           5.9340     0.0450     2.9020 hc         1 GWK       0.041700
     39 H4           4.8260    -1.3090     2.7600 hc         1 GWK       0.041700
     40 H5           3.2810     0.0570     1.4190 hc         1 GWK       0.056700
     41 H6           6.1380     0.1580     0.3700 hc         1 GWK       0.053200
     42 H7           5.1280    -1.2650     0.3620 hc         1 GWK       0.053200
     43 H8           4.5310     1.3180    -1.1600 h1         1 GWK       0.096700
     44 H9           0.8520    -1.1500    -1.1070 h1         1 GWK       0.073700
     45 H11         -6.1860    -1.5780    -0.2270 h1         1 GWK       0.044950
     46 H12         -7.6280     0.3410    -0.5540 h1         1 GWK       0.053700
     47 H13         -8.6000    -1.0190     0.0340 h1         1 GWK       0.053700
     48 H14         -7.1030     2.1000     1.0660 h1         1 GWK       0.053700
     49 H15         -7.7290     1.8840     2.7090 h1         1 GWK       0.053700
     50 H16         -5.3000     1.4120     2.5260 h1         1 GWK       0.044950
     51 H17         -6.2070     0.0130     3.1140 h1         1 GWK       0.044950
     52 H19         -4.3540    -1.4070     2.3130 h1         1 GWK       0.051700
     53 H20         -4.0660    -1.4750     0.5830 h1         1 GWK       0.051700
     54 H21         -2.1490    -1.3000     2.5500 hn         1 GWK       0.319500
     55 H22         -0.9310     1.3530     2.1630 h1         1 GWK       0.088700
     56 H23          0.7740     0.5360     3.7950 hc         1 GWK       0.052367
     57 H24         -0.8620     0.4690     4.4470 hc         1 GWK       0.052367
     58 H25         -0.0620    -1.0110     3.9000 hc         1 GWK       0.052367
     59 H26         -0.6240     1.1400    -0.0550 hn         1 GWK       0.342500
     60 H27         -0.2370     1.3380    -2.4890 hc         1 GWK       0.066700
     61 H28          0.5450    -0.0090    -3.2900 hc         1 GWK       0.066700
     62 H29         -2.5580     1.1420    -1.7070 ha         1 GWK       0.118000
     63 H30         -4.6670    -0.0950    -1.6990 ha         1 GWK       0.129500
     64 H31         -6.1530    -4.1240    -2.8050 h1         1 GWK       0.040700
     65 H32         -4.8220    -3.9570    -3.9630 h1         1 GWK       0.040700
     66 H33         -4.4950    -4.5000    -2.3030 h1         1 GWK       0.040700
     67 H34         -2.6350    -3.5200    -3.3180 ha         1 GWK       0.129500
     68 H35         -0.5410    -2.2830    -3.2780 ha         1 GWK       0.118000
     69 H36          2.9550    -1.1610    -0.9300 hn         1 GWK       0.314500
     70 H37          5.3960     2.2390     1.6280 hc         1 GWK       0.041700
     71 H38          3.9240     2.3400     0.6780 hc         1 GWK       0.041700
     72 H39          3.6500     3.5070     2.8420 hc         1 GWK       0.037200
     73 H40          2.5310     2.1670     2.6910 hc         1 GWK       0.037200
     74 H41          5.1530     2.1380     4.2350 hc         1 GWK       0.045700
     75 H42          3.6750     1.8780     6.2350 hc         1 GWK       0.030367
     76 H43          3.3580     3.3960     5.3940 hc         1 GWK       0.030367
     77 H44          2.2540     2.0370     5.2040 hc         1 GWK       0.030367
     78 H45          5.2810    -1.4640    -2.1510 h1         1 GWK       0.016700
     79 H46          3.6740    -0.3320    -3.3660 ho         1 GWK       0.448000
     80 H47          6.7680     0.0810    -4.6640 hc         1 GWK       0.046200
     81 H48          8.3250    -0.2250    -3.9000 hc         1 GWK       0.046200
     82 H49          7.0960    -1.4920    -3.9420 hc         1 GWK       0.046200
     83 H50          6.6870     1.9690    -1.3790 hc         1 GWK       0.046200
     84 H51          7.9120     1.8890    -2.6390 hc         1 GWK       0.046200
     85 H52          6.2180     2.0900    -3.0760 hc         1 GWK       0.046200
     86 H53          7.5190    -1.4290    -1.5080 ho         1 GWK       0.439000
     87 C10          6.7400     0.0790    -2.4720 c3         1 GWK       0.196000
     88 C23          2.0810     0.6330    -1.2110 c          1 GWK       0.581100
     89 C11          7.2530    -0.4160    -3.8270 c3         1 GWK      -0.097100
     90 C12          6.8940     1.5920    -2.3820 c3         1 GWK      -0.097100
     91 O13          7.5520    -0.4690    -1.4460 oh         1 GWK      -0.661000
     92 C26          0.1390    -0.2570     1.2070 c          1 GWK       0.580100
     93 O49          2.1500     1.8460    -1.3260 o          1 GWK      -0.590100
     94 C29         -3.1090     0.1600     1.5080 c          1 GWK       0.604100
     95 H10         -6.7600    -1.8180     1.4280 h1         1 GWK       0.044950
@<TRIPOS>BOND
     1     1     2 1   
     2     1    32 1   
     3     1    36 1   
     4     1    37 1   
     5     2     3 1   
     6     2    38 1   
     7     2    39 1   
     8     3     4 1   
     9     3    30 1   
    10     3    40 1   
    11     4     5 1   
    12     4    41 1   
    13     4    42 1   
    14     5    29 1   
    15     5    34 1   
    16     5    43 1   
    17     6    19 1   
    18     6    20 1   
    19     6    44 1   
    20     6    88 1   
    21     7     8 1   
    22     7    12 1   
    23     7    45 1   
    24     7    95 1   
    25     8     9 1   
    26     8    46 1   
    27     8    47 1   
    28     9    10 1   
    29    10    11 1   
    30    10    48 1   
    31    10    49 1   
    32    11    12 1   
    33    11    50 1   
    34    11    51 1   
    35    12    13 1   
    36    13    52 1   
    37    13    53 1   
    38    13    94 1   
    39    14    94 2   
    40    15    16 1   
    41    15    54 1   
    42    15    94 1   
    43    16    17 1   
    44    16    55 1   
    45    16    92 1   
    46    17    56 1   
    47    17    57 1   
    48    17    58 1   
    49    18    92 2   
    50    19    59 1   
    51    19    92 1   
    52    20    21 1   
    53    20    60 1   
    54    20    61 1   
    55    21    22 ar  
    56    21    28 ar  
    57    22    23 ar  
    58    22    62 1   
    59    23    24 ar  
    60    23    63 1   
    61    24    25 1   
    62    24    27 ar  
    63    25    26 1   
    64    26    64 1   
    65    26    65 1   
    66    26    66 1   
    67    27    28 ar  
    68    27    67 1   
    69    28    68 1   
    70    29    69 1   
    71    29    88 1   
    72    30    31 1   
    73    30    70 1   
    74    30    71 1   
    75    31    32 1   
    76    31    72 1   
    77    31    73 1   
    78    32    33 1   
    79    32    74 1   
    80    33    75 1   
    81    33    76 1   
    82    33    77 1   
    83    34    35 1   
    84    34    78 1   
    85    34    87 1   
    86    35    79 1   
    87    80    89 1   
    88    81    89 1   
    89    82    89 1   
    90    83    90 1   
    91    84    90 1   
    92    85    90 1   
    93    86    91 1   
    94    87    89 1   
    95    87    90 1   
    96    87    91 1   
    97    88    93 2   
@<TRIPOS>SUBSTRUCTURE
     1 GWK         1 TEMP              0 ****  ****    0 ROOT
