@<TRIPOS>MOLECULE
GWL
   51    52     1     0     0
SMALL
No Charge or Current Charge


@<TRIPOS>ATOM
      1 C01          3.9970    -2.7030    30.9730 ca         1 GWL       0.186300
      2 C02          4.7800    -1.5240    31.5430 c3         1 GWL      -0.130700
      3 C03          6.1030    -1.2790    30.7910 c3         1 GWL      -0.082100
      4 C04          3.0320    -2.5520    29.9510 ca         1 GWL      -0.128900
      5 O05          2.7400    -1.3000    29.4380 os         1 GWL      -0.353100
      6 C06          3.0740    -0.9830    28.0740 c3         1 GWL       0.151600
      7 C07          2.8030     0.5190    27.8550 c3         1 GWL      -0.078400
      8 C08          3.6610     1.4410    28.7440 c3         1 GWL       0.166600
      9 O09          5.0390     1.2450    28.3840 os         1 GWL      -0.358100
     10 C10          6.0800     1.8410    29.0690 ca         1 GWL       0.162100
     11 C11          5.8510     2.7290    30.1450 ca         1 GWL      -0.197000
     12 C12          6.9330     3.3030    30.8310 ca         1 GWL      -0.066000
     13 C13          7.4060     1.5340    28.6840 ca         1 GWL      -0.121300
     14 C14          7.6920     0.5740    27.5290 c3         1 GWL      -0.007100
     15 C15          7.5120     1.2240    26.1360 c3         1 GWL      -0.161400
     16 C16          8.5730     2.2910    25.8610 c          1 GWL       0.606100
     17 O17          8.4340     3.4690    26.1390 o          1 GWL      -0.600100
     18 N18          9.7140     1.8570    25.2830 nt         1 GWL      -0.617000
     19 C19          8.4840     2.1160    29.3810 ca         1 GWL      -0.069000
     20 C20          8.2470     2.9960    30.4490 ca         1 GWL      -0.146000
     21 C21          2.3830    -3.7300    29.5130 ca         1 GWL       0.394900
     22 N22          2.6680    -4.9340    30.0190 nb         1 GWL      -0.322000
     23 C23          3.6080    -4.9550    30.9700 ca         1 GWL       0.402900
     24 N24          3.9030    -6.1720    31.4810 nv         1 GWL      -1.048900
     25 N25          4.2880    -3.9200    31.4800 nb         1 GWL      -0.279000
     26 N26          1.3890    -3.7300    28.5830 nv         1 GWL      -1.061900
     27 H021         5.0010    -1.6920    32.6040 hc         1 GWL       0.062200
     28 H022         4.1750    -0.6110    31.5040 hc         1 GWL       0.062200
     29 H031         6.6190    -0.3990    31.1950 hc         1 GWL       0.037700
     30 H033         6.7700    -2.1440    30.8880 hc         1 GWL       0.037700
     31 H032         5.9140    -1.1090    29.7260 hc         1 GWL       0.037700
     32 H061         4.1310    -1.2010    27.8740 h1         1 GWL       0.039200
     33 H062         2.4670    -1.5680    27.3710 h1         1 GWL       0.039200
     34 H072         2.9850     0.7670    26.8020 hc         1 GWL       0.059700
     35 H071         1.7430     0.7230    28.0470 hc         1 GWL       0.059700
     36 H082         3.3660     2.4860    28.5810 h1         1 GWL       0.043700
     37 H081         3.4930     1.1930    29.8000 h1         1 GWL       0.043700
     38 H111         4.8440     2.9840    30.4620 ha         1 GWL       0.117000
     39 H121         6.7530     3.9860    31.6590 ha         1 GWL       0.111000
     40 H142         7.0260    -0.2960    27.5980 hc         1 GWL       0.046200
     41 H141         8.7090     0.1690    27.6080 hc         1 GWL       0.046200
     42 H151         7.6200     0.4160    25.4030 hc         1 GWL       0.066700
     43 H152         6.5130     1.6690    26.0680 hc         1 GWL       0.066700
     44 H181        10.4480     2.5200    25.0820 hn         1 GWL       0.309000
     45 H182         9.8280     0.8800    25.0570 hn         1 GWL       0.309000
     46 H191         9.5080     1.8880    29.0940 ha         1 GWL       0.108000
     47 H201         9.0850     3.4410    30.9810 ha         1 GWL       0.115000
     48 H241         3.5770    -6.9960    30.9820 hn         1 GWL       0.484000
     49 H242         4.7470    -6.2740    32.0390 hn         1 GWL       0.484000
     50 H261         0.8120    -4.5640    28.5060 hn         1 GWL       0.488000
     51 H262         0.9320    -2.8440    28.3840 hn         1 GWL       0.488000
@<TRIPOS>BOND
     1     1     2 1   
     2     1     4 ar  
     3     1    25 ar  
     4     2     3 1   
     5     2    27 1   
     6     2    28 1   
     7     3    29 1   
     8     3    30 1   
     9     3    31 1   
    10     4     5 1   
    11     4    21 ar  
    12     5     6 1   
    13     6     7 1   
    14     6    32 1   
    15     6    33 1   
    16     7     8 1   
    17     7    34 1   
    18     7    35 1   
    19     8     9 1   
    20     8    36 1   
    21     8    37 1   
    22     9    10 1   
    23    10    11 ar  
    24    10    13 ar  
    25    11    12 ar  
    26    11    38 1   
    27    12    20 ar  
    28    12    39 1   
    29    13    14 1   
    30    13    19 ar  
    31    14    15 1   
    32    14    40 1   
    33    14    41 1   
    34    15    16 1   
    35    15    42 1   
    36    15    43 1   
    37    16    17 2   
    38    16    18 1   
    39    18    44 1   
    40    18    45 1   
    41    19    20 ar  
    42    19    46 1   
    43    20    47 1   
    44    21    22 ar  
    45    21    26 1   
    46    22    23 ar  
    47    23    24 1   
    48    23    25 ar  
    49    24    48 1   
    50    24    49 1   
    51    26    50 1   
    52    26    51 1   
@<TRIPOS>SUBSTRUCTURE
     1 GWL         1 TEMP              0 ****  ****    0 ROOT
