@<TRIPOS>MOLECULE
GWL
   51    52     1     0     0
SMALL
abcg2


@<TRIPOS>ATOM
      1 C01          4.1180    -2.6430    30.7820 ca         1 GWL       0.186300
      2 C02          5.0760    -1.5320    31.1020 c3         1 GWL      -0.130700
      3 C03          6.4160    -1.7160    30.3950 c3         1 GWL      -0.082100
      4 C04          2.9960    -2.4500    30.0040 ca         1 GWL      -0.128900
      5 O05          2.6600    -1.2360    29.4750 os         1 GWL      -0.353100
      6 C06          3.1080    -1.0250    28.1340 c3         1 GWL       0.151600
      7 C07          2.8950     0.4310    27.7760 c3         1 GWL      -0.078400
      8 C08          3.7200     1.4000    28.5980 c3         1 GWL       0.166600
      9 O09          5.0870     1.1600    28.3110 os         1 GWL      -0.358100
     10 C10          6.0430     1.7860    29.0240 ca         1 GWL       0.162100
     11 C11          5.7780     2.6970    30.0430 ca         1 GWL      -0.197000
     12 C12          6.8290     3.2820    30.7410 ca         1 GWL      -0.066000
     13 C13          7.3680     1.4660    28.6860 ca         1 GWL      -0.121300
     14 C14          7.6750     0.5270    27.5530 c3         1 GWL      -0.007100
     15 C15          7.5030     1.1710    26.1680 c3         1 GWL      -0.161400
     16 C16          8.3520     2.4150    26.0070 c          1 GWL       0.606100
     17 O17          7.8720     3.5390    25.9740 o          1 GWL      -0.600100
     18 N18          9.6750     2.1880    25.9280 nt         1 GWL      -0.617000
     19 C19          8.3940     2.0630    29.4050 ca         1 GWL      -0.069000
     20 C20          8.1400     2.9660    30.4320 ca         1 GWL      -0.146000
     21 C21          2.1660    -3.5710    29.7840 ca         1 GWL       0.394900
     22 N22          2.4730    -4.7610    30.2850 nb         1 GWL      -0.322000
     23 C23          3.5900    -4.8420    31.0090 ca         1 GWL       0.402900
     24 N24          3.8760    -6.0580    31.5460 nv         1 GWL      -1.048900
     25 N25          4.4180    -3.8440    31.2910 nb         1 GWL      -0.279000
     26 N26          1.0480    -3.4690    29.0340 nv         1 GWL      -1.061900
     27 H021         5.2360    -1.5260    32.1820 hc         1 GWL       0.062200
     28 H022         4.6490    -0.5650    30.8400 hc         1 GWL       0.062200
     29 H031         7.0960    -0.9020    30.6440 hc         1 GWL       0.037700
     30 H033         6.8890    -2.6540    30.6860 hc         1 GWL       0.037700
     31 H032         6.2920    -1.7240    29.3120 hc         1 GWL       0.037700
     32 H061         4.1640    -1.3000    28.0420 h1         1 GWL       0.039200
     33 H062         2.5460    -1.6610    27.4420 h1         1 GWL       0.039200
     34 H072         3.1220     0.5610    26.7150 hc         1 GWL       0.059700
     35 H071         1.8410     0.6910    27.8980 hc         1 GWL       0.059700
     36 H082         3.4550     2.4320    28.3420 h1         1 GWL       0.043700
     37 H081         3.5170     1.2630    29.6650 h1         1 GWL       0.043700
     38 H111         4.7630     2.9650    30.3030 ha         1 GWL       0.117000
     39 H121         6.6080     3.9870    31.5320 ha         1 GWL       0.111000
     40 H142         7.0350    -0.3560    27.5940 hc         1 GWL       0.046200
     41 H141         8.6990     0.1630    27.6620 hc         1 GWL       0.046200
     42 H151         7.7720     0.4360    25.4040 hc         1 GWL       0.066700
     43 H152         6.4610     1.4430    26.0070 hc         1 GWL       0.066700
     44 H181        10.3220     2.9560    25.8470 hn         1 GWL       0.309000
     45 H182        10.0580     1.2590    25.9350 hn         1 GWL       0.309000
     46 H191         9.4180     1.8140    29.1520 ha         1 GWL       0.108000
     47 H201         8.9590     3.4160    30.9780 ha         1 GWL       0.115000
     48 H241         3.4230    -6.8610    31.1440 hn         1 GWL       0.484000
     49 H242         4.8140    -6.2060    31.8750 hn         1 GWL       0.484000
     50 H261         0.3970    -4.2350    29.0660 hn         1 GWL       0.488000
     51 H262         0.6490    -2.5600    28.8700 hn         1 GWL       0.488000
@<TRIPOS>BOND
     1     1     2 1   
     2     1     4 ar  
     3     1    25 ar  
     4     2     3 1   
     5     2    27 1   
     6     2    28 1   
     7     3    29 1   
     8     3    30 1   
     9     3    31 1   
    10     4     5 1   
    11     4    21 ar  
    12     5     6 1   
    13     6     7 1   
    14     6    32 1   
    15     6    33 1   
    16     7     8 1   
    17     7    34 1   
    18     7    35 1   
    19     8     9 1   
    20     8    36 1   
    21     8    37 1   
    22     9    10 1   
    23    10    11 ar  
    24    10    13 ar  
    25    11    12 ar  
    26    11    38 1   
    27    12    20 ar  
    28    12    39 1   
    29    13    14 1   
    30    13    19 ar  
    31    14    15 1   
    32    14    40 1   
    33    14    41 1   
    34    15    16 1   
    35    15    42 1   
    36    15    43 1   
    37    16    17 2   
    38    16    18 1   
    39    18    44 1   
    40    18    45 1   
    41    19    20 ar  
    42    19    46 1   
    43    20    47 1   
    44    21    22 ar  
    45    21    26 1   
    46    22    23 ar  
    47    23    24 1   
    48    23    25 ar  
    49    24    48 1   
    50    24    49 1   
    51    26    50 1   
    52    26    51 1   
@<TRIPOS>SUBSTRUCTURE
     1 GWL         1 TEMP              0 ****  ****    0 ROOT
