@<TRIPOS>MOLECULE
GWM
   19    19     1     0     0
SMALL
bcc


@<TRIPOS>ATOM
      1 C12          4.5560    -0.0550    -0.4850 c3         1 GWM      -0.003800
      2 C01          3.0970    -0.0250    -0.1230 ca         1 GWM      -0.209300
      3 C02          2.4040     1.1800    -0.0230 ca         1 GWM      -0.115500
      4 C03          1.0660     1.2200     0.3400 ca         1 GWM      -0.198500
      5 C04          0.3720     0.0430     0.6340 ca         1 GWM       0.293100
      6 C05          1.0530    -1.1680     0.5150 ca         1 GWM      -0.198500
      7 C06          2.3930    -1.1950     0.1510 ca         1 GWM      -0.115500
      8 O07         -0.9020     0.0770     1.0490 os         1 GWM      -0.440500
      9 P08         -2.1700     0.0900    -0.1570 p5         1 GWM       1.254900
     10 O09         -3.3860     0.0970     0.7540 o          1 GWM      -0.901500
     11 O10         -1.9230     1.3710    -0.9350 o          1 GWM      -0.901500
     12 O11         -1.9370    -1.1910    -0.9390 o          1 GWM      -0.901500
     13 H1           5.1820     0.2470     0.3580 hc         1 GWM       0.001367
     14 H2           4.8730    -1.0550    -0.7810 hc         1 GWM       0.001367
     15 H3           4.7820     0.6240    -1.3080 hc         1 GWM       0.001367
     16 H4           2.9190     2.1100    -0.2390 ha         1 GWM       0.078500
     17 H5           0.5510     2.1690     0.4110 ha         1 GWM       0.139000
     18 H6           0.5300    -2.0920     0.7230 ha         1 GWM       0.139000
     19 H7           2.8990    -2.1510     0.0700 ha         1 GWM       0.078500
@<TRIPOS>BOND
     1     1     2 1   
     2     1    13 1   
     3     1    14 1   
     4     1    15 1   
     5     2     3 ar  
     6     2     7 ar  
     7     3     4 ar  
     8     3    16 1   
     9     4     5 ar  
    10     4    17 1   
    11     5     6 ar  
    12     5     8 1   
    13     6     7 ar  
    14     6    18 1   
    15     7    19 1   
    16     8     9 1   
    17     9    10 1   
    18     9    11 1   
    19     9    12 1   
@<TRIPOS>SUBSTRUCTURE
     1 GWM         1 TEMP              0 ****  ****    0 ROOT
