@<TRIPOS>MOLECULE
GWM
   19    19     1     0     0
SMALL
No Charge or Current Charge


@<TRIPOS>ATOM
      1 C12          4.6480     0.0390    -0.3350 c3         1 GWM      -0.003800
      2 C01          3.1470    -0.0940    -0.1190 ca         1 GWM      -0.209300
      3 C02          2.2740     0.9150    -0.5660 ca         1 GWM      -0.097500
      4 C03          0.8880     0.7950    -0.3640 ca         1 GWM      -0.180500
      5 C04          0.3600    -0.3390     0.2900 ca         1 GWM       0.293100
      6 C05          1.2380    -1.3430     0.7360 ca         1 GWM      -0.180500
      7 C06          2.6240    -1.2240     0.5350 ca         1 GWM      -0.097500
      8 O07         -0.9810    -0.5220     0.5210 os         1 GWM      -0.440500
      9 P08         -2.2060     0.4510     0.1260 p5         1 GWM       1.254900
     10 O09         -3.4810    -0.1700     0.5820 o          1 GWM      -0.901500
     11 O10         -2.0440     1.7740     0.7910 o          1 GWM      -0.901500
     12 O11         -2.2560     0.6360    -1.3520 o          1 GWM      -0.901500
     13 H1           5.1190     0.5530     0.5110 hc         1 GWM       0.001367
     14 H2           5.1250    -0.9430    -0.4400 hc         1 GWM       0.001367
     15 H3           4.8710     0.6120    -1.2430 hc         1 GWM       0.001367
     16 H4           2.6690     1.7940    -1.0700 ha         1 GWM       0.060500
     17 H5           0.2390     1.5880    -0.7190 ha         1 GWM       0.121000
     18 H6           0.8380    -2.2170     1.2420 ha         1 GWM       0.121000
     19 H7           3.2880    -2.0090     0.8880 ha         1 GWM       0.060500
@<TRIPOS>BOND
     1     1     2 1   
     2     1    13 1   
     3     1    14 1   
     4     1    15 1   
     5     2     3 ar  
     6     2     7 ar  
     7     3     4 ar  
     8     3    16 1   
     9     4     5 ar  
    10     4    17 1   
    11     5     6 ar  
    12     5     8 1   
    13     6     7 ar  
    14     6    18 1   
    15     7    19 1   
    16     8     9 1   
    17     9    10 1   
    18     9    11 1   
    19     9    12 1   
@<TRIPOS>SUBSTRUCTURE
     1 GWM         1 TEMP              0 ****  ****    0 ROOT
