@<TRIPOS>MOLECULE
GWO
   45    46     1     0     0
SMALL
No Charge or Current Charge


@<TRIPOS>ATOM
      1 N05        161.9280   175.4590   153.4080 n8         1 GWO      -1.009200
      2 C06        162.5170   174.1400   153.7470 c3         1 GWO       0.138500
      3 C07        163.0220   173.3580   152.4770 c3         1 GWO       0.165300
      4 O39        163.5630   172.0820   152.8640 oh         1 GWO      -0.654000
      5 C40        161.4940   173.3360   154.6000 c3         1 GWO      -0.042100
      6 C41        160.9970   174.0930   155.8320 ca         1 GWO      -0.071300
      7 C42        159.6640   174.5460   155.9050 ca         1 GWO      -0.107500
      8 C43        161.8690   174.3390   156.9110 ca         1 GWO      -0.107500
      9 C44        159.2110   175.2400   157.0400 ca         1 GWO      -0.115500
     10 C45        161.4160   175.0340   158.0470 ca         1 GWO      -0.115500
     11 C46        160.0870   175.4850   158.1110 ca         1 GWO      -0.122000
     12 C08        164.1060   174.1340   151.6700 c3         1 GWO      -0.051400
     13 C09        164.5720   173.4570   150.3420 c3         1 GWO      -0.183700
     14 C10        165.8750   174.0960   149.8040 c          1 GWO       0.720000
     15 O31        165.9050   175.2990   149.5920 o          1 GWO      -0.735000
     16 C32        163.4720   173.3480   149.2430 c3         1 GWO      -0.015100
     17 C33        162.8510   174.6680   148.7820 ca         1 GWO      -0.043300
     18 C34        163.3710   175.3420   147.6580 ca         1 GWO      -0.099500
     19 C35        161.7250   175.2020   149.4410 ca         1 GWO      -0.099500
     20 C36        162.7870   176.5400   147.2120 ca         1 GWO      -0.123500
     21 C37        161.1410   176.4010   148.9950 ca         1 GWO      -0.123500
     22 C38        161.6730   177.0720   147.8820 ca         1 GWO      -0.136000
     23 H10        161.4890   175.8370   154.2550 hn         1 GWO       0.400000
     24 H11        163.3870   174.3390   154.3880 h1         1 GWO       0.029700
     25 H12        162.1550   173.1980   151.8230 h1         1 GWO       0.033700
     26 H13        162.8040   171.5030   153.0850 ho         1 GWO       0.418000
     27 H14        160.6490   173.0460   153.9640 hc         1 GWO       0.050200
     28 H15        161.9560   172.3990   154.9330 hc         1 GWO       0.050200
     29 H16        158.9780   174.3620   155.0810 ha         1 GWO       0.116500
     30 H17        162.8990   173.9920   156.8710 ha         1 GWO       0.116500
     31 H18        158.1820   175.5880   157.0900 ha         1 GWO       0.105500
     32 H19        162.0950   175.2210   158.8760 ha         1 GWO       0.105500
     33 H20        159.7360   176.0220   158.9900 ha         1 GWO       0.103000
     34 H21        164.9800   174.2680   152.3180 hc         1 GWO       0.054700
     35 H22        163.7460   175.1430   151.4390 hc         1 GWO       0.054700
     36 H23        164.8320   172.4170   150.5740 hc         1 GWO       0.045700
     37 H24        162.6780   172.6840   149.6060 hc         1 GWO       0.030200
     38 H25        163.9030   172.8260   148.3790 hc         1 GWO       0.030200
     39 H26        164.2320   174.9370   147.1320 ha         1 GWO       0.123500
     40 H27        161.2980   174.6900   150.2990 ha         1 GWO       0.123500
     41 H28        163.1980   177.0550   146.3470 ha         1 GWO       0.092500
     42 H29        160.2750   176.8080   149.5120 ha         1 GWO       0.092500
     43 H30        161.2210   177.9990   147.5360 ha         1 GWO       0.088000
     44 OXT        166.8540   173.3740   149.6740 o          1 GWO      -0.735000
     45 H2         162.6830   176.1230   153.2080 hn         1 GWO       0.400000
@<TRIPOS>BOND
     1     1     2 1   
     2     1    23 1   
     3     1    45 1   
     4     2     3 1   
     5     2     5 1   
     6     2    24 1   
     7     3     4 1   
     8     3    12 1   
     9     3    25 1   
    10     4    26 1   
    11     5     6 1   
    12     5    27 1   
    13     5    28 1   
    14     6     7 ar  
    15     6     8 ar  
    16     7     9 ar  
    17     7    29 1   
    18     8    10 ar  
    19     8    30 1   
    20     9    11 ar  
    21     9    31 1   
    22    10    11 ar  
    23    10    32 1   
    24    11    33 1   
    25    12    13 1   
    26    12    34 1   
    27    12    35 1   
    28    13    14 1   
    29    13    16 1   
    30    13    36 1   
    31    14    15 1   
    32    14    44 1   
    33    16    17 1   
    34    16    37 1   
    35    16    38 1   
    36    17    18 ar  
    37    17    19 ar  
    38    18    20 ar  
    39    18    39 1   
    40    19    21 ar  
    41    19    40 1   
    42    20    22 ar  
    43    20    41 1   
    44    21    22 ar  
    45    21    42 1   
    46    22    43 1   
@<TRIPOS>SUBSTRUCTURE
     1 GWO         1 TEMP              0 ****  ****    0 ROOT
