@<TRIPOS>MOLECULE
GWO
   45    46     1     0     0
SMALL
abcg2


@<TRIPOS>ATOM
      1 N05        161.7950   175.3400   153.3070 n8         1 GWO      -1.009200
      2 C06        162.5390   174.1700   153.7540 c3         1 GWO       0.138500
      3 C07        163.0230   173.3830   152.5230 c3         1 GWO       0.165300
      4 O39        163.6300   172.1590   152.8960 oh         1 GWO      -0.654000
      5 C40        161.6220   173.3040   154.6280 c3         1 GWO      -0.042100
      6 C41        161.0740   174.0430   155.8170 ca         1 GWO      -0.071300
      7 C42        159.7630   174.5140   155.8290 ca         1 GWO      -0.107500
      8 C43        161.8810   174.3040   156.9240 ca         1 GWO      -0.107500
      9 C44        159.2680   175.2260   156.9150 ca         1 GWO      -0.115500
     10 C45        161.3920   175.0160   158.0110 ca         1 GWO      -0.115500
     11 C46        160.0830   175.4810   158.0100 ca         1 GWO      -0.122000
     12 C08        164.0510   174.1670   151.7140 c3         1 GWO      -0.051400
     13 C09        164.5060   173.4970   150.4190 c3         1 GWO      -0.183700
     14 C10        165.7050   174.2130   149.7480 c          1 GWO       0.720000
     15 O31        166.0310   175.3380   150.1740 o          1 GWO      -0.735000
     16 C32        163.3660   173.3320   149.3910 c3         1 GWO      -0.015100
     17 C33        162.8110   174.6280   148.8670 ca         1 GWO      -0.043300
     18 C34        163.3910   175.2570   147.7660 ca         1 GWO      -0.099500
     19 C35        161.7150   175.2450   149.4700 ca         1 GWO      -0.099500
     20 C36        162.8970   176.4620   147.2850 ca         1 GWO      -0.123500
     21 C37        161.2190   176.4520   148.9950 ca         1 GWO      -0.123500
     22 C38        161.8090   177.0670   147.9000 ca         1 GWO      -0.136000
     23 H10        161.4120   175.8270   154.1070 hn         1 GWO       0.400000
     24 H11        163.4240   174.4330   154.3570 h1         1 GWO       0.029700
     25 H12        162.1310   173.1940   151.9080 h1         1 GWO       0.033700
     26 H13        162.9420   171.5210   153.1070 ho         1 GWO       0.418000
     27 H14        160.7940   172.9350   154.0130 hc         1 GWO       0.050200
     28 H15        162.1800   172.4340   154.9790 hc         1 GWO       0.050200
     29 H16        159.1200   174.3190   154.9780 ha         1 GWO       0.116500
     30 H17        162.9030   173.9430   156.9360 ha         1 GWO       0.116500
     31 H18        158.2450   175.5810   156.9050 ha         1 GWO       0.105500
     32 H19        162.0340   175.2070   158.8620 ha         1 GWO       0.105500
     33 H20        159.7000   176.0350   158.8570 ha         1 GWO       0.103000
     34 H21        164.9210   174.3400   152.3560 hc         1 GWO       0.054700
     35 H22        163.6540   175.1570   151.4810 hc         1 GWO       0.054700
     36 H23        164.8380   172.4810   150.6560 hc         1 GWO       0.045700
     37 H24        162.5570   172.7420   149.8300 hc         1 GWO       0.030200
     38 H25        163.7500   172.7420   148.5570 hc         1 GWO       0.030200
     39 H26        164.2420   174.7950   147.2800 ha         1 GWO       0.123500
     40 H27        161.2420   174.7780   150.3260 ha         1 GWO       0.123500
     41 H28        163.3630   176.9280   146.4250 ha         1 GWO       0.092500
     42 H29        160.3670   176.9100   149.4820 ha         1 GWO       0.092500
     43 H30        161.4210   178.0060   147.5250 ha         1 GWO       0.088000
     44 OXT        166.2480   173.5920   148.8080 o          1 GWO      -0.735000
     45 H2         162.4170   176.0040   152.8650 hn         1 GWO       0.400000
@<TRIPOS>BOND
     1     1     2 1   
     2     1    23 1   
     3     1    45 1   
     4     2     3 1   
     5     2     5 1   
     6     2    24 1   
     7     3     4 1   
     8     3    12 1   
     9     3    25 1   
    10     4    26 1   
    11     5     6 1   
    12     5    27 1   
    13     5    28 1   
    14     6     7 ar  
    15     6     8 ar  
    16     7     9 ar  
    17     7    29 1   
    18     8    10 ar  
    19     8    30 1   
    20     9    11 ar  
    21     9    31 1   
    22    10    11 ar  
    23    10    32 1   
    24    11    33 1   
    25    12    13 1   
    26    12    34 1   
    27    12    35 1   
    28    13    14 1   
    29    13    16 1   
    30    13    36 1   
    31    14    15 1   
    32    14    44 1   
    33    16    17 1   
    34    16    37 1   
    35    16    38 1   
    36    17    18 ar  
    37    17    19 ar  
    38    18    20 ar  
    39    18    39 1   
    40    19    21 ar  
    41    19    40 1   
    42    20    22 ar  
    43    20    41 1   
    44    21    22 ar  
    45    21    42 1   
    46    22    43 1   
@<TRIPOS>SUBSTRUCTURE
     1 GWO         1 TEMP              0 ****  ****    0 ROOT
