@<TRIPOS>MOLECULE
GWP
   20    21     1     0     0
SMALL
abcg2


@<TRIPOS>ATOM
      1 N1          -0.7460     1.1120     0.4850 na         1 GWP      -0.300500
      2 C4          -2.3050    -0.7520    -0.1130 cx         1 GWP      -0.159000
      3 C5          -3.4780     0.0600    -0.5940 cx         1 GWP      -0.124400
      4 C6          -3.4330    -0.4050     0.8210 cx         1 GWP      -0.124400
      5 O            3.4340     0.6850     0.1900 o          1 GWP      -0.624100
      6 N            2.8480    -1.3650    -0.5760 nt         1 GWP      -0.594000
      7 C1           1.1430     0.1500     0.0600 cc         1 GWP       0.170500
      8 N2           0.1540    -0.7550    -0.2230 nc         1 GWP      -0.671000
      9 C3          -0.9750    -0.1510     0.0420 cd         1 GWP       0.441800
     10 C2           0.5960     1.3210     0.5030 cd         1 GWP      -0.146000
     11 H1          -1.4390     1.7920     0.7600 hn         1 GWP       0.355000
     12 H2          -2.2550    -1.7790    -0.4500 hc         1 GWP       0.110700
     13 H3          -3.3200     1.1120    -0.7970 hc         1 GWP       0.074950
     14 H4          -4.1650    -0.4230    -1.2770 hc         1 GWP       0.074950
     15 H5          -4.0890    -1.2110     1.1230 hc         1 GWP       0.074950
     16 H6          -3.2460     0.3270     1.5970 hc         1 GWP       0.074950
     17 H7           3.7980    -1.6660    -0.7080 hn         1 GWP       0.322500
     18 H8           2.1060    -2.0080    -0.7990 hn         1 GWP       0.322500
     19 H10          1.0310     2.2520     0.8210 h4         1 GWP       0.175000
     20 C            2.5760    -0.1420    -0.1000 c          1 GWP       0.545600
@<TRIPOS>BOND
     1     1     9 1   
     2     1    10 1   
     3     1    11 1   
     4     2     3 1   
     5     2     4 1   
     6     2     9 1   
     7     2    12 1   
     8     3     4 1   
     9     3    13 1   
    10     3    14 1   
    11     4    15 1   
    12     4    16 1   
    13     5    20 2   
    14     6    17 1   
    15     6    18 1   
    16     6    20 1   
    17     7     8 1   
    18     7    10 2   
    19     7    20 1   
    20     8     9 2   
    21    10    19 1   
@<TRIPOS>SUBSTRUCTURE
     1 GWP         1 TEMP              0 ****  ****    0 ROOT
