@<TRIPOS>MOLECULE
GWP
   20    21     1     0     0
SMALL
No Charge or Current Charge


@<TRIPOS>ATOM
      1 N1          -0.7270     1.1840     0.4960 na         1 GWP      -0.300500
      2 C4          -2.3430    -0.7390    -0.1220 cx         1 GWP      -0.159000
      3 C5          -3.5440     0.0530    -0.5970 cx         1 GWP      -0.124400
      4 C6          -3.4890    -0.4500     0.8260 cx         1 GWP      -0.124400
      5 O            3.5010     0.6510     0.1420 o          1 GWP      -0.624100
      6 N            2.9240    -1.3840    -0.5560 nt         1 GWP      -0.594000
      7 C1           1.1350     0.1290     0.0500 cc         1 GWP       0.170500
      8 N2           0.1030    -0.7460    -0.2200 nc         1 GWP      -0.671000
      9 C3          -1.0150    -0.0940     0.0550 cd         1 GWP       0.441800
     10 C2           0.6520     1.3330     0.4950 cd         1 GWP      -0.146000
     11 H1          -1.4150     1.8740     0.7670 hn         1 GWP       0.355000
     12 H2          -2.2640    -1.7610    -0.4870 hc         1 GWP       0.110700
     13 H3          -3.4240     1.1210    -0.7620 hc         1 GWP       0.074950
     14 H4          -4.2340    -0.4360    -1.2810 hc         1 GWP       0.074950
     15 H5          -4.1420    -1.2770     1.0970 hc         1 GWP       0.074950
     16 H6          -3.3310     0.2800     1.6170 hc         1 GWP       0.074950
     17 H7           3.8910    -1.6390    -0.6850 hn         1 GWP       0.322500
     18 H8           2.1800    -2.0370    -0.7590 hn         1 GWP       0.322500
     19 H10          1.1710     2.2380     0.7950 h4         1 GWP       0.175000
     20 C            2.6070    -0.1460    -0.1060 c          1 GWP       0.545600
@<TRIPOS>BOND
     1     1     9 1   
     2     1    10 1   
     3     1    11 1   
     4     2     3 1   
     5     2     4 1   
     6     2     9 1   
     7     2    12 1   
     8     3     4 1   
     9     3    13 1   
    10     3    14 1   
    11     4    15 1   
    12     4    16 1   
    13     5    20 2   
    14     6    17 1   
    15     6    18 1   
    16     6    20 1   
    17     7     8 1   
    18     7    10 2   
    19     7    20 1   
    20     8     9 2   
    21    10    19 1   
@<TRIPOS>SUBSTRUCTURE
     1 GWP         1 TEMP              0 ****  ****    0 ROOT
