@<TRIPOS>MOLECULE
GWR
   52    55     1     0     0
SMALL
abcg2


@<TRIPOS>ATOM
      1 C13         97.5280    90.6020    59.1160 c          1 GWR       0.633600
      2 C15         99.7530    88.6310    60.4480 c3         1 GWR       0.131900
      3 C17         99.1420    90.2200    62.2710 cc         1 GWR       0.695800
      4 C20         96.5070    93.4690    62.1680 c3         1 GWR       0.101300
      5 C21         96.0350    92.8290    55.3660 c3         1 GWR       0.165600
      6 C22        102.2330    88.6880    60.8800 ca         1 GWR      -0.075500
      7 C24        100.2620    90.2290    64.3040 ca         1 GWR       0.117100
      8 C26        102.6600    90.2410    58.6190 ca         1 GWR      -0.110000
      9 C28        101.3240    91.1150    64.3400 ca         1 GWR      -0.098000
     10 C11         98.0800    90.5770    60.4220 cc         1 GWR      -0.359600
     11 C12         97.7510    91.4960    61.3810 cd         1 GWR       0.467900
     12 C14         95.9550    91.7660    57.6520 c3         1 GWR       0.102000
     13 C16         96.2650    92.5970    59.9100 c          1 GWR       0.617000
     14 C18         96.7110    92.7010    56.7160 c3         1 GWR      -0.094400
     15 C19        101.1520    89.0500    60.0840 ca         1 GWR      -0.124300
     16 C23        101.3800    89.8270    58.9520 ca         1 GWR      -0.075500
     17 C25        103.5210    89.0920    60.5600 ca         1 GWR      -0.110000
     18 C27        103.7220    89.8680    59.4310 ca         1 GWR       0.132000
     19 C29         99.5300    89.9090    65.4320 ca         1 GWR      -0.096000
     20 C30        101.6520    91.6870    65.5590 ca         1 GWR       0.125000
     21 C31         99.8830    90.4980    66.6380 ca         1 GWR      -0.094000
     22 C32        100.9410    91.3910    66.7120 ca         1 GWR      -0.095000
     23 N07         98.9990    89.7330    61.0330 na         1 GWR      -0.133500
     24 N08         96.6000    91.6400    58.9600 n          1 GWR      -0.372400
     25 N09         96.8540    92.4930    61.1480 n          1 GWR      -0.359300
     26 N10         98.4120    91.2790    62.5350 nd         1 GWR      -0.760000
     27 O03         99.9690    89.6080    63.1040 os         1 GWR      -0.359400
     28 O04         97.7940    89.8400    58.1980 o          1 GWR      -0.540000
     29 O05         95.4800    93.4930    59.6670 o          1 GWR      -0.555000
     30 O06         96.0150    91.5640    54.7390 oh         1 GWR      -0.661000
     31 CL1        105.3270    90.3730    59.0180 cl         1 GWR      -0.198000
     32 CL2        102.9800    92.7930    65.6340 cl         1 GWR      -0.188000
     33 H1          99.2040    88.2970    59.5730 h1         1 GWR       0.086200
     34 H2          99.7640    87.8040    61.1570 h1         1 GWR       0.086200
     35 H3          97.0170    93.2010    63.0870 h1         1 GWR       0.059033
     36 H4          96.8190    94.4680    61.8690 h1         1 GWR       0.059033
     37 H5          95.4350    93.4680    62.3480 h1         1 GWR       0.059033
     38 H6          96.5810    93.5670    54.7640 h1         1 GWR       0.020700
     39 H7          95.0190    93.2240    55.5050 h1         1 GWR       0.020700
     40 H8         102.0770    88.0750    61.7590 ha         1 GWR       0.129000
     41 H9         102.8270    90.8420    57.7350 ha         1 GWR       0.133000
     42 H10        101.8840    91.3430    63.4420 ha         1 GWR       0.147000
     43 H11         94.9390    92.1210    57.8050 h1         1 GWR       0.077200
     44 H12         95.8860    90.7700    57.2250 h1         1 GWR       0.077200
     45 H13         97.7380    92.3490    56.5830 hc         1 GWR       0.058200
     46 H14         96.7730    93.6970    57.1590 hc         1 GWR       0.058200
     47 H15        100.5520    90.1090    58.3130 ha         1 GWR       0.129000
     48 H16        104.3550    88.8020    61.1850 ha         1 GWR       0.133000
     49 H17         98.7080    89.2080    65.3730 ha         1 GWR       0.136000
     50 H18         99.3250    90.2590    67.5330 ha         1 GWR       0.125000
     51 H19        101.2110    91.8450    67.6560 ha         1 GWR       0.135000
     52 H20         95.5200    91.6390    53.9190 ho         1 GWR       0.441000
@<TRIPOS>BOND
     1     1    10 1   
     2     1    24 1   
     3     1    28 2   
     4     2    15 1   
     5     2    23 1   
     6     2    33 1   
     7     2    34 1   
     8     3    23 1   
     9     3    26 2   
    10     3    27 1   
    11     4    25 1   
    12     4    35 1   
    13     4    36 1   
    14     4    37 1   
    15     5    14 1   
    16     5    30 1   
    17     5    38 1   
    18     5    39 1   
    19     6    15 ar  
    20     6    17 ar  
    21     6    40 1   
    22     7     9 ar  
    23     7    19 ar  
    24     7    27 1   
    25     8    16 ar  
    26     8    18 ar  
    27     8    41 1   
    28     9    20 ar  
    29     9    42 1   
    30    10    11 2   
    31    10    23 1   
    32    11    25 1   
    33    11    26 1   
    34    12    14 1   
    35    12    24 1   
    36    12    43 1   
    37    12    44 1   
    38    13    24 1   
    39    13    25 1   
    40    13    29 2   
    41    14    45 1   
    42    14    46 1   
    43    15    16 ar  
    44    16    47 1   
    45    17    18 ar  
    46    17    48 1   
    47    18    31 1   
    48    19    21 ar  
    49    19    49 1   
    50    20    22 ar  
    51    20    32 1   
    52    21    22 ar  
    53    21    50 1   
    54    22    51 1   
    55    30    52 1   
@<TRIPOS>SUBSTRUCTURE
     1 GWR         1 TEMP              0 ****  ****    0 ROOT
