@<TRIPOS>MOLECULE
GWR
   52    55     1     0     0
SMALL
No Charge or Current Charge


@<TRIPOS>ATOM
      1 C13         97.5450    90.6290    59.1360 c          1 GWR       0.633600
      2 C15         99.7170    88.5190    60.4400 c3         1 GWR       0.131900
      3 C17         99.1130    90.0370    62.3750 cc         1 GWR       0.695800
      4 C20         96.4930    93.3670    62.3270 c3         1 GWR       0.101300
      5 C21         96.1620    93.0350    55.3190 c3         1 GWR       0.165600
      6 C22        102.2150    88.6970    60.8880 ca         1 GWR      -0.075500
      7 C24        100.1920    90.1630    64.4010 ca         1 GWR       0.117100
      8 C26        102.6490    89.9210    58.3960 ca         1 GWR      -0.110000
      9 C28        100.8600    91.4000    64.2830 ca         1 GWR      -0.098000
     10 C11         98.0930    90.5180    60.4880 cc         1 GWR      -0.359600
     11 C12         97.7430    91.3930    61.4730 cd         1 GWR       0.467900
     12 C14         96.0280    91.8610    57.6150 c3         1 GWR       0.102000
     13 C16         96.2960    92.5930    59.9760 c          1 GWR       0.617000
     14 C18         96.8420    92.7810    56.6790 c3         1 GWR      -0.094400
     15 C19        101.1270    88.9210    60.0200 ca         1 GWR      -0.124300
     16 C23        101.3510    89.5360    58.7720 ca         1 GWR      -0.075500
     17 C25        103.5130    89.0840    60.5100 ca         1 GWR      -0.110000
     18 C27        103.7280    89.6950    59.2650 ca         1 GWR       0.132000
     19 C29         99.8890    89.6530    65.6760 ca         1 GWR      -0.096000
     20 C30        101.1710    92.1410    65.4340 ca         1 GWR       0.125000
     21 C31        100.2030    90.3960    66.8280 ca         1 GWR      -0.094000
     22 C32        100.8400    91.6440    66.7060 ca         1 GWR      -0.095000
     23 N07         98.9870    89.6300    61.0710 na         1 GWR      -0.133500
     24 N08         96.6610    91.6990    58.9550 n          1 GWR      -0.372400
     25 N09         96.8660    92.4220    61.2450 n          1 GWR      -0.359300
     26 N10         98.3710    91.0920    62.6590 nd         1 GWR      -0.760000
     27 O03         99.9170    89.3870    63.2920 os         1 GWR      -0.359400
     28 O04         97.8380    89.8520    58.2400 o          1 GWR      -0.540000
     29 O05         95.5050    93.5040    59.7680 o          1 GWR      -0.555000
     30 O06         96.0400    91.8090    54.5920 oh         1 GWR      -0.661000
     31 Cl1        105.3520    90.1800    58.7930 cl         1 GWR      -0.198000
     32 Cl2        101.9870    93.6910    65.2840 cl         1 GWR      -0.188000
     33 H1          99.1580    88.1610    59.5680 h1         1 GWR       0.086200
     34 H2          99.7680    87.6840    61.1500 h1         1 GWR       0.086200
     35 H3          97.1180    93.2250    63.2180 h1         1 GWR       0.059033
     36 H4          96.6210    94.4000    61.9810 h1         1 GWR       0.059033
     37 H5          95.4430    93.2110    62.6050 h1         1 GWR       0.059033
     38 H6          96.7650    93.7540    54.7490 h1         1 GWR       0.020700
     39 H7          95.1730    93.4840    55.4850 h1         1 GWR       0.020700
     40 H8         102.0580    88.2270    61.8570 ha         1 GWR       0.129000
     41 H9         102.8190    90.3950    57.4320 ha         1 GWR       0.133000
     42 H10        101.1360    91.7850    63.3050 ha         1 GWR       0.147000
     43 H11         95.0140    92.2680    57.7280 h1         1 GWR       0.077200
     44 H12         95.9050    90.8790    57.1400 h1         1 GWR       0.077200
     45 H13         97.8360    92.3480    56.5140 hc         1 GWR       0.058200
     46 H14         96.9950    93.7470    57.1750 hc         1 GWR       0.058200
     47 H15        100.5200    89.7170    58.0930 ha         1 GWR       0.129000
     48 H16        104.3500    88.9120    61.1810 ha         1 GWR       0.133000
     49 H17         99.4040    88.6840    65.7680 ha         1 GWR       0.136000
     50 H18         99.9570    90.0040    67.8130 ha         1 GWR       0.125000
     51 H19        101.0850    92.2210    67.5950 ha         1 GWR       0.135000
     52 H20         95.6320    92.0300    53.7250 ho         1 GWR       0.441000
@<TRIPOS>BOND
     1     1    10 1   
     2     1    24 1   
     3     1    28 2   
     4     2    15 1   
     5     2    23 1   
     6     2    33 1   
     7     2    34 1   
     8     3    23 1   
     9     3    26 2   
    10     3    27 1   
    11     4    25 1   
    12     4    35 1   
    13     4    36 1   
    14     4    37 1   
    15     5    14 1   
    16     5    30 1   
    17     5    38 1   
    18     5    39 1   
    19     6    15 ar  
    20     6    17 ar  
    21     6    40 1   
    22     7     9 ar  
    23     7    19 ar  
    24     7    27 1   
    25     8    16 ar  
    26     8    18 ar  
    27     8    41 1   
    28     9    20 ar  
    29     9    42 1   
    30    10    11 2   
    31    10    23 1   
    32    11    25 1   
    33    11    26 1   
    34    12    14 1   
    35    12    24 1   
    36    12    43 1   
    37    12    44 1   
    38    13    24 1   
    39    13    25 1   
    40    13    29 2   
    41    14    45 1   
    42    14    46 1   
    43    15    16 ar  
    44    16    47 1   
    45    17    18 ar  
    46    17    48 1   
    47    18    31 1   
    48    19    21 ar  
    49    19    49 1   
    50    20    22 ar  
    51    20    32 1   
    52    21    22 ar  
    53    21    50 1   
    54    22    51 1   
    55    30    52 1   
@<TRIPOS>SUBSTRUCTURE
     1 GWR         1 TEMP              0 ****  ****    0 ROOT
