@<TRIPOS>MOLECULE
GWS
   34    35     1     0     0
SMALL
No Charge or Current Charge


@<TRIPOS>ATOM
      1 N1           4.3670     0.0690     1.4140 nb         1 GWS      -0.643000
      2 C4          -3.3720    -1.4470     0.9040 c6         1 GWS      -0.072900
      3 C5          -4.6910    -0.6440     1.0130 c6         1 GWS      -0.075400
      4 C6          -4.9230     0.2180    -0.2510 c6         1 GWS      -0.072900
      5 C7          -3.7190     1.1540    -0.5190 c6         1 GWS      -0.072400
      6 C8           2.3860     0.1610    -0.0070 ca         1 GWS      -0.071000
      7 C10          4.3090    -1.1470    -0.6780 ca         1 GWS      -0.137000
      8 C            0.1330     0.5750    -1.1820 c          1 GWS       0.607100
      9 N            1.0690     0.6860    -0.1610 ns         1 GWS      -0.144000
     10 C12          3.1120     0.5060     1.1540 ca         1 GWS       0.282900
     11 C11          4.9500    -0.7450     0.5060 ca         1 GWS       0.303900
     12 C9           3.0060    -0.6930    -0.9460 ca         1 GWS      -0.098000
     13 C1          -1.1870     1.3130    -0.9130 c3         1 GWS      -0.155400
     14 C2          -2.3890     0.3570    -0.6360 c6         1 GWS      -0.054700
     15 C3          -2.1660    -0.5130     0.6360 c6         1 GWS      -0.072400
     16 H2          -3.4550    -2.1870     0.0960 hc         1 GWS       0.041450
     17 H3          -5.5360    -1.3320     1.1560 hc         1 GWS       0.039200
     18 H4          -4.6600     0.0020     1.9010 hc         1 GWS       0.039200
     19 H5          -5.0850    -0.4350    -1.1200 hc         1 GWS       0.041450
     20 H6          -5.8390     0.8130    -0.1330 hc         1 GWS       0.041450
     21 H7          -3.8980     1.7230    -1.4420 hc         1 GWS       0.038950
     22 H8          -3.6410     1.8920     0.2910 hc         1 GWS       0.038950
     23 H9           4.8220    -1.8050    -1.3740 ha         1 GWS       0.125000
     24 H10          0.7540     1.2370     0.6270 hn         1 GWS       0.152000
     25 H11          2.6710     1.1600     1.9070 h4         1 GWS       0.011100
     26 H12          5.9600    -1.0850     0.7340 h4         1 GWS       0.021100
     27 H13          2.5120    -1.0090    -1.8600 ha         1 GWS       0.153000
     28 H14         -1.0630     1.9860    -0.0570 hc         1 GWS       0.060200
     29 H15         -1.4140     1.9130    -1.8020 hc         1 GWS       0.060200
     30 H16         -2.4660    -0.3120    -1.5070 hc         1 GWS       0.071700
     31 H17         -2.0030     0.1350     1.5080 hc         1 GWS       0.038950
     32 H18         -1.2590    -1.1240     0.5280 hc         1 GWS       0.038950
     33 H1          -3.2050    -2.0140     1.8300 hc         1 GWS       0.041450
     34 O            0.3240    -0.0300    -2.2310 o          1 GWS      -0.579100
@<TRIPOS>BOND
     1     1    10 ar  
     2     1    11 ar  
     3     2     3 1   
     4     2    15 1   
     5     2    16 1   
     6     2    33 1   
     7     3     4 1   
     8     3    17 1   
     9     3    18 1   
    10     4     5 1   
    11     4    19 1   
    12     4    20 1   
    13     5    14 1   
    14     5    21 1   
    15     5    22 1   
    16     6     9 1   
    17     6    10 ar  
    18     6    12 ar  
    19     7    11 ar  
    20     7    12 ar  
    21     7    23 1   
    22     8     9 1   
    23     8    13 1   
    24     8    34 2   
    25     9    24 1   
    26    10    25 1   
    27    11    26 1   
    28    12    27 1   
    29    13    14 1   
    30    13    28 1   
    31    13    29 1   
    32    14    15 1   
    33    14    30 1   
    34    15    31 1   
    35    15    32 1   
@<TRIPOS>SUBSTRUCTURE
     1 GWS         1 TEMP              0 ****  ****    0 ROOT
