@<TRIPOS>MOLECULE
GWS
   34    35     1     0     0
SMALL
abcg2


@<TRIPOS>ATOM
      1 N1           4.6950     0.5470     0.8940 nb         1 GWS      -0.643000
      2 C4          -3.6260    -1.5260     0.7380 c6         1 GWS      -0.072900
      3 C5          -4.8770    -0.6550     0.7730 c6         1 GWS      -0.075400
      4 C6          -4.9010     0.3160    -0.4020 c6         1 GWS      -0.072900
      5 C7          -3.6350     1.1650    -0.4480 c6         1 GWS      -0.072400
      6 C8           2.4920     0.2370    -0.0090 ca         1 GWS      -0.071000
      7 C10          4.2740    -1.2160    -0.6430 ca         1 GWS      -0.137000
      8 C            0.1370     0.3800    -0.7850 c          1 GWS       0.607100
      9 N            1.1860     0.7220     0.0100 ns         1 GWS      -0.144000
     10 C12          3.4260     0.8970     0.7960 ca         1 GWS       0.282900
     11 C11          5.1170    -0.4940     0.1840 ca         1 GWS       0.303900
     12 C9           2.9400    -0.8550    -0.7500 ca         1 GWS      -0.098000
     13 C1          -1.1270     1.1710    -0.5320 c3         1 GWS      -0.155400
     14 C2          -2.3780     0.2960    -0.4940 c6         1 GWS      -0.054700
     15 C3          -2.3600    -0.6740     0.6880 c6         1 GWS      -0.072400
     16 H2          -3.6600    -2.1730    -0.1450 hc         1 GWS       0.041450
     17 H3          -5.7750    -1.2780     0.7690 hc         1 GWS       0.039200
     18 H4          -4.8940    -0.0890     1.7120 hc         1 GWS       0.039200
     19 H5          -4.9860    -0.2490    -1.3370 hc         1 GWS       0.041450
     20 H6          -5.7830     0.9600    -0.3460 hc         1 GWS       0.041450
     21 H7          -3.6590     1.8310    -1.3150 hc         1 GWS       0.038950
     22 H8          -3.5950     1.8090     0.4390 hc         1 GWS       0.038950
     23 H9           4.6540    -2.0600    -1.2030 ha         1 GWS       0.125000
     24 H10          1.0190     1.4630     0.6750 hn         1 GWS       0.152000
     25 H11          3.1100     1.7540     1.3860 h4         1 GWS       0.011100
     26 H12          6.1630    -0.7610     0.2800 h4         1 GWS       0.021100
     27 H13          2.2770    -1.4120    -1.3910 ha         1 GWS       0.153000
     28 H14         -1.0550     1.7540     0.3910 hc         1 GWS       0.060200
     29 H15         -1.2130     1.8970    -1.3480 hc         1 GWS       0.060200
     30 H16         -2.4100    -0.2920    -1.4200 hc         1 GWS       0.071700
     31 H17         -2.2740    -0.0990     1.6180 hc         1 GWS       0.038950
     32 H18         -1.4800    -1.3210     0.6380 hc         1 GWS       0.038950
     33 H1          -3.5970    -2.1880     1.6070 hc         1 GWS       0.041450
     34 O            0.2020    -0.4790    -1.6460 o          1 GWS      -0.579100
@<TRIPOS>BOND
     1     1    10 ar  
     2     1    11 ar  
     3     2     3 1   
     4     2    15 1   
     5     2    16 1   
     6     2    33 1   
     7     3     4 1   
     8     3    17 1   
     9     3    18 1   
    10     4     5 1   
    11     4    19 1   
    12     4    20 1   
    13     5    14 1   
    14     5    21 1   
    15     5    22 1   
    16     6     9 1   
    17     6    10 ar  
    18     6    12 ar  
    19     7    11 ar  
    20     7    12 ar  
    21     7    23 1   
    22     8     9 1   
    23     8    13 1   
    24     8    34 2   
    25     9    24 1   
    26    10    25 1   
    27    11    26 1   
    28    12    27 1   
    29    13    14 1   
    30    13    28 1   
    31    13    29 1   
    32    14    15 1   
    33    14    30 1   
    34    15    31 1   
    35    15    32 1   
@<TRIPOS>SUBSTRUCTURE
     1 GWS         1 TEMP              0 ****  ****    0 ROOT
