@<TRIPOS>MOLECULE
GWT
  109   112     1     0     0
SMALL
abcg2


@<TRIPOS>ATOM
      1 C4           4.5480     2.3410     0.8520 c6         1 GWT      -0.067400
      2 C5           4.9250     0.8870     1.1180 c6         1 GWT      -0.074900
      3 C6           4.0440    -0.0950     0.3500 c6         1 GWT      -0.061700
      4 C7           4.4760    -1.5320     0.6400 c3         1 GWT      -0.081400
      5 C8           3.6100    -2.5960    -0.0330 c3         1 GWT       0.082700
      6 C24         -0.1590    -2.0990     0.2150 c3         1 GWT       0.033700
      7 C26         -0.1230     0.2700     0.8600 c          1 GWT       0.578100
      8 C55          4.2950     4.5050    -2.4020 c6         1 GWT      -0.073400
      9 C54          3.9270     5.9540    -2.7070 c6         1 GWT      -0.072900
     10 C53          4.7450     6.9280    -1.8710 c6         1 GWT      -0.075400
     11 C52          4.5990     6.6070    -0.3900 c6         1 GWT      -0.072900
     12 C51          4.9740     5.1600    -0.0840 c6         1 GWT      -0.073400
     13 C50          4.1710     4.1530    -0.9150 c6         1 GWT      -0.051700
     14 C3           4.5850     2.6950    -0.6370 c6         1 GWT      -0.060700
     15 C2           3.7210     1.6950    -1.4120 c6         1 GWT      -0.067400
     16 C1           4.0930     0.2420    -1.1360 c6         1 GWT      -0.074900
     17 C9           4.0130    -4.0600     0.2550 c3         1 GWT       0.168300
     18 O21          3.0350    -4.9280    -0.2690 oh         1 GWT      -0.656000
     19 N22          2.2310    -2.4010     0.3760 ns         1 GWT      -0.480900
     20 C23          1.1790    -2.4430    -0.4470 c          1 GWT       0.588100
     21 O49          1.2480    -2.6850    -1.6450 o          1 GWT      -0.615100
     22 C40         -1.2860    -2.9710    -0.3310 c3         1 GWT      -0.037100
     23 C41         -2.6130    -2.6800     0.3150 ca         1 GWT      -0.105300
     24 C48         -3.6960    -2.2200    -0.4290 ca         1 GWT      -0.061000
     25 C47         -4.9310    -1.9930     0.1560 ca         1 GWT      -0.192500
     26 C44         -5.1100    -2.2060     1.5230 ca         1 GWT       0.118100
     27 O45         -6.3430    -1.9570     2.0120 os         1 GWT      -0.372100
     28 C46         -6.5700    -2.1280     3.3980 c3         1 GWT       0.142900
     29 C43         -4.0340    -2.6490     2.2880 ca         1 GWT      -0.192500
     30 C42         -2.8100    -2.8870     1.6760 ca         1 GWT      -0.061000
     31 N25         -0.4390    -0.6980    -0.0140 ns         1 GWT      -0.490900
     32 O39          0.4560     0.0710     1.9150 o          1 GWT      -0.587100
     33 C27         -0.6040     1.6680     0.4520 c3         1 GWT       0.031700
     34 C38          0.2620     2.7650     1.0380 c3         1 GWT      -0.103100
     35 N28         -1.9770     1.8210     0.9040 ns         1 GWT      -0.464900
     36 C29         -3.0350     1.4440     0.1860 c          1 GWT       0.591100
     37 O37         -2.9940     1.0100    -0.9540 o          1 GWT      -0.605100
     38 C30         -4.3620     1.5560     0.9190 c3         1 GWT      -0.014400
     39 N31         -5.4710     1.5460    -0.0570 nx         1 GWT      -0.648000
     40 C36         -6.7830     1.2340     0.5890 c6         1 GWT       0.053600
     41 C35         -7.8800     1.2350    -0.4560 c6         1 GWT       0.127600
     42 O34         -7.9520     2.4670    -1.1270 os         1 GWT      -0.403000
     43 C33         -6.7440     2.7520    -1.7850 c6         1 GWT       0.127600
     44 C32         -5.5850     2.8340    -0.8120 c6         1 GWT       0.053600
     45 H1           3.5420     2.5370     1.2430 hc         1 GWT       0.033700
     46 H2           5.2230     2.9850     1.4170 hc         1 GWT       0.033700
     47 H3           5.9720     0.7310     0.8290 hc         1 GWT       0.043950
     48 H4           4.8680     0.6810     2.1910 hc         1 GWT       0.043950
     49 H5           3.0140     0.0480     0.6990 hc         1 GWT       0.043700
     50 H6           5.5100    -1.6570     0.3220 hc         1 GWT       0.063700
     51 H7           4.4720    -1.7000     1.7240 hc         1 GWT       0.063700
     52 H8           3.6360    -2.4460    -1.1160 h1         1 GWT       0.075700
     53 H9          -0.0800    -2.2490     1.2940 h1         1 GWT       0.081700
     54 H10          3.6670     3.8490    -3.0060 hc         1 GWT       0.040200
     55 H11          5.3290     4.3190    -2.7210 hc         1 GWT       0.040200
     56 H12          4.0660     6.1530    -3.7730 hc         1 GWT       0.036450
     57 H13          2.8620     6.1070    -2.5010 hc         1 GWT       0.036450
     58 H14          5.8010     6.8570    -2.1560 hc         1 GWT       0.043200
     59 H15          4.4380     7.9580    -2.0720 hc         1 GWT       0.043200
     60 H16          5.2140     7.2830     0.2100 hc         1 GWT       0.036450
     61 H17          3.5610     6.7820    -0.0830 hc         1 GWT       0.036450
     62 H18          6.0440     5.0130    -0.2800 hc         1 GWT       0.040200
     63 H19          4.8300     4.9810     0.9830 hc         1 GWT       0.040200
     64 H20          3.1120     4.2580    -0.6290 hc         1 GWT       0.029700
     65 H21          5.6240     2.5760    -0.9810 hc         1 GWT       0.053700
     66 H22          2.6680     1.8500    -1.1410 hc         1 GWT       0.033700
     67 H23          3.7880     1.8710    -2.4860 hc         1 GWT       0.033700
     68 H24          5.1040     0.0420    -1.5140 hc         1 GWT       0.043950
     69 H25          3.4210    -0.4060    -1.7050 hc         1 GWT       0.043950
     70 H26          3.9920    -4.2110     1.3420 h1         1 GWT       0.083700
     71 H27          2.8440    -4.6810    -1.1800 ho         1 GWT       0.454000
     72 H28          6.6150    -6.2800    -0.3150 hc         1 GWT       0.045367
     73 H29          5.3290    -6.3500     0.8920 hc         1 GWT       0.045367
     74 H30          4.9530    -6.5340    -0.8240 hc         1 GWT       0.045367
     75 H31          4.9500    -4.4380    -2.3560 hc         1 GWT       0.045367
     76 H32          5.7310    -2.9650    -1.7760 hc         1 GWT       0.045367
     77 H33          6.6660    -4.4390    -2.0020 hc         1 GWT       0.045367
     78 H34          7.2310    -4.0880     0.3880 ho         1 GWT       0.451000
     79 H35          2.0640    -2.1890     1.3480 hn         1 GWT       0.326500
     80 H36         -1.3590    -2.8370    -1.4120 hc         1 GWT       0.082200
     81 H37         -1.0130    -4.0160    -0.1660 hc         1 GWT       0.082200
     82 H38         -3.5850    -2.0510    -1.4940 ha         1 GWT       0.126500
     83 H39         -5.7730    -1.6840    -0.4540 ha         1 GWT       0.119000
     84 H40         -7.6050    -1.8490     3.5760 h1         1 GWT       0.050367
     85 H41         -6.4270    -3.1660     3.7080 h1         1 GWT       0.050367
     86 H42         -5.9230    -1.4870     4.0010 h1         1 GWT       0.050367
     87 H43         -4.1310    -2.8310     3.3490 ha         1 GWT       0.119000
     88 H44         -1.9940    -3.2550     2.2890 ha         1 GWT       0.126500
     89 H45         -0.8990    -0.4440    -0.8760 hn         1 GWT       0.336500
     90 H46         -0.6000     1.7510    -0.6370 h1         1 GWT       0.092700
     91 H47         -0.0810     3.7370     0.6860 hc         1 GWT       0.065700
     92 H48          0.2390     2.7580     2.1270 hc         1 GWT       0.065700
     93 H49          1.2980     2.6430     0.7250 hc         1 GWT       0.065700
     94 H50         -2.1180     2.1390     1.8530 hn         1 GWT       0.335500
     95 H51         -4.4740     0.6910     1.5750 hx         1 GWT       0.117700
     96 H52         -4.4390     2.4550     1.5290 hx         1 GWT       0.117700
     97 H53         -5.2520     0.8080    -0.7380 hn         1 GWT       0.526000
     98 H54         -6.7100     0.2620     1.0750 hx         1 GWT       0.111450
     99 H55         -6.9520     1.9940     1.3500 hx         1 GWT       0.111450
    100 H56         -7.7220     0.4100    -1.1650 h1         1 GWT       0.093200
    101 H57         -8.8320     1.0620     0.0440 h1         1 GWT       0.093200
    102 H58         -6.5270     2.0000    -2.5560 h1         1 GWT       0.093200
    103 H59         -6.8450     3.7170    -2.2810 h1         1 GWT       0.093200
    104 H60         -5.7350     3.6200    -0.0730 hx         1 GWT       0.111450
    105 H61         -4.6530     3.0140    -1.3430 hx         1 GWT       0.111450
    106 C10          5.4250    -4.4810    -0.2260 c3         1 GWT       0.159000
    107 C11          5.5780    -5.9990    -0.1120 c3         1 GWT      -0.120600
    108 C12          5.7020    -4.0500    -1.6670 c3         1 GWT      -0.120600
    109 O13          6.3380    -3.8590     0.6660 oh         1 GWT      -0.668000
@<TRIPOS>BOND
     1     1     2 1   
     2     1    14 1   
     3     1    45 1   
     4     1    46 1   
     5     2     3 1   
     6     2    47 1   
     7     2    48 1   
     8     3     4 1   
     9     3    16 1   
    10     3    49 1   
    11     4     5 1   
    12     4    50 1   
    13     4    51 1   
    14     5    17 1   
    15     5    19 1   
    16     5    52 1   
    17     6    20 1   
    18     6    22 1   
    19     6    31 1   
    20     6    53 1   
    21     7    31 1   
    22     7    32 2   
    23     7    33 1   
    24     8     9 1   
    25     8    13 1   
    26     8    54 1   
    27     8    55 1   
    28     9    10 1   
    29     9    56 1   
    30     9    57 1   
    31    10    11 1   
    32    10    58 1   
    33    10    59 1   
    34    11    12 1   
    35    11    60 1   
    36    11    61 1   
    37    12    13 1   
    38    12    62 1   
    39    12    63 1   
    40    13    14 1   
    41    13    64 1   
    42    14    15 1   
    43    14    65 1   
    44    15    16 1   
    45    15    66 1   
    46    15    67 1   
    47    16    68 1   
    48    16    69 1   
    49    17    18 1   
    50    17    70 1   
    51    17   106 1   
    52    18    71 1   
    53    19    20 1   
    54    19    79 1   
    55    20    21 2   
    56    22    23 1   
    57    22    80 1   
    58    22    81 1   
    59    23    24 ar  
    60    23    30 ar  
    61    24    25 ar  
    62    24    82 1   
    63    25    26 ar  
    64    25    83 1   
    65    26    27 1   
    66    26    29 ar  
    67    27    28 1   
    68    28    84 1   
    69    28    85 1   
    70    28    86 1   
    71    29    30 ar  
    72    29    87 1   
    73    30    88 1   
    74    31    89 1   
    75    33    34 1   
    76    33    35 1   
    77    33    90 1   
    78    34    91 1   
    79    34    92 1   
    80    34    93 1   
    81    35    36 1   
    82    35    94 1   
    83    36    37 2   
    84    36    38 1   
    85    38    39 1   
    86    38    95 1   
    87    38    96 1   
    88    39    40 1   
    89    39    44 1   
    90    39    97 1   
    91    40    41 1   
    92    40    98 1   
    93    40    99 1   
    94    41    42 1   
    95    41   100 1   
    96    41   101 1   
    97    42    43 1   
    98    43    44 1   
    99    43   102 1   
   100    43   103 1   
   101    44   104 1   
   102    44   105 1   
   103    72   107 1   
   104    73   107 1   
   105    74   107 1   
   106    75   108 1   
   107    76   108 1   
   108    77   108 1   
   109    78   109 1   
   110   106   107 1   
   111   106   108 1   
   112   106   109 1   
@<TRIPOS>SUBSTRUCTURE
     1 GWT         1 TEMP              0 ****  ****    0 ROOT
