@<TRIPOS>MOLECULE
GWT
  109   112     1     0     0
SMALL
No Charge or Current Charge


@<TRIPOS>ATOM
      1 C4           3.8110     2.1860     0.2520 c6         1 GWT      -0.067400
      2 C5           4.6760     0.9000     0.2510 c6         1 GWT      -0.074900
      3 C6           3.8050    -0.3500    -0.0120 c6         1 GWT      -0.061700
      4 C7           4.6220    -1.6780     0.1220 c3         1 GWT      -0.081400
      5 C8           3.8310    -3.0080    -0.0860 c3         1 GWT       0.082700
      6 C24         -0.0050    -2.7890     0.5270 c3         1 GWT       0.033700
      7 C26          0.5730    -1.0120     2.2600 c          1 GWT       0.578100
      8 C55          1.0980     3.7850    -2.2130 c6         1 GWT      -0.073400
      9 C54          0.1560     5.0100    -2.1050 c6         1 GWT      -0.072900
     10 C53          0.9500     6.3080    -1.8470 c6         1 GWT      -0.075400
     11 C52          1.8130     6.1670    -0.5750 c6         1 GWT      -0.072900
     12 C51          2.7640     4.9480    -0.6700 c6         1 GWT      -0.073400
     13 C50          2.0000     3.6110    -0.9470 c6         1 GWT      -0.051700
     14 C3           2.9840     2.3810    -1.0640 c6         1 GWT      -0.060700
     15 C2           2.2210     1.0640    -1.4170 c6         1 GWT      -0.067400
     16 C1           3.1170    -0.1940    -1.3910 c6         1 GWT      -0.074900
     17 C9           4.5690    -4.3170     0.3920 c3         1 GWT       0.168300
     18 O21          3.6710    -5.4330     0.2130 oh         1 GWT      -0.656000
     19 N22          2.4930    -2.8680     0.5200 ns         1 GWT      -0.480900
     20 C23          1.3330    -3.4410     0.0510 c          1 GWT       0.588100
     21 O49          1.3820    -4.3610    -0.7550 o          1 GWT      -0.615100
     22 C40         -1.0850    -2.8200    -0.5870 c3         1 GWT      -0.037100
     23 C41         -2.3760    -2.0570    -0.2720 ca         1 GWT      -0.105300
     24 C48         -3.0110    -1.3170    -1.2900 ca         1 GWT      -0.061000
     25 C47         -4.2190    -0.6460    -1.0340 ca         1 GWT      -0.192500
     26 C44         -4.8070    -0.7050     0.2370 ca         1 GWT       0.118100
     27 O45         -5.9940    -0.0330     0.4260 os         1 GWT      -0.372100
     28 C46         -6.7230    -0.0980     1.6650 c3         1 GWT       0.142900
     29 C43         -4.1710    -1.4300     1.2650 ca         1 GWT      -0.192500
     30 C42         -2.9670    -2.1080     1.0080 ca         1 GWT      -0.061000
     31 N25          0.1850    -1.3930     0.9960 ns         1 GWT      -0.490900
     32 O39          0.9240    -1.8350     3.0930 o          1 GWT      -0.587100
     33 C27          0.5740     0.5250     2.5030 c3         1 GWT       0.031700
     34 C38          1.2910     0.9480     3.8040 c3         1 GWT      -0.103100
     35 N28         -0.7940     1.0870     2.4370 ns         1 GWT      -0.464900
     36 C29         -1.4660     1.3650     1.2680 c          1 GWT       0.591100
     37 O37         -1.0230     1.0370     0.1790 o          1 GWT      -0.605100
     38 C30         -2.8070     2.1080     1.4350 c3         1 GWT      -0.014400
     39 N31         -3.6640     2.3080     0.1580 nx         1 GWT      -0.648000
     40 C36         -5.0360     2.9510     0.4630 c6         1 GWT       0.053600
     41 C35         -5.8600     3.1550    -0.8340 c6         1 GWT       0.127600
     42 O34         -5.0980     3.9370    -1.7830 os         1 GWT      -0.403000
     43 C33         -3.8520     3.3230    -2.1830 c6         1 GWT       0.127600
     44 C32         -2.9420     3.1210    -0.9450 c6         1 GWT       0.053600
     45 H1           3.1340     2.1640     1.1170 hc         1 GWT       0.033700
     46 H2           4.4860     3.0360     0.4100 hc         1 GWT       0.033700
     47 H3           5.4630     0.9810    -0.5110 hc         1 GWT       0.043950
     48 H4           5.1870     0.8060     1.2190 hc         1 GWT       0.043950
     49 H5           3.0350    -0.3700     0.7690 hc         1 GWT       0.043700
     50 H6           5.4490    -1.6490    -0.5960 hc         1 GWT       0.063700
     51 H7           5.0810    -1.7080     1.1180 hc         1 GWT       0.063700
     52 H8           3.6710    -3.1040    -1.1680 h1         1 GWT       0.075700
     53 H9          -0.3520    -3.3900     1.3770 h1         1 GWT       0.081700
     54 H10          0.4660     2.9010    -2.3640 hc         1 GWT       0.040200
     55 H11          1.7260     3.8800    -3.1100 hc         1 GWT       0.040200
     56 H12         -0.4330     5.1100    -3.0270 hc         1 GWT       0.036450
     57 H13         -0.5630     4.8510    -1.2900 hc         1 GWT       0.036450
     58 H14          1.5900     6.5330    -2.7110 hc         1 GWT       0.043200
     59 H15          0.2580     7.1540    -1.7380 hc         1 GWT       0.043200
     60 H16          2.3980     7.0830    -0.4200 hc         1 GWT       0.036450
     61 H17          1.1620     6.0600     0.3040 hc         1 GWT       0.036450
     62 H18          3.5060     5.1230    -1.4620 hc         1 GWT       0.040200
     63 H19          3.3210     4.8910     0.2730 hc         1 GWT       0.040200
     64 H20          1.3330     3.4250    -0.0930 hc         1 GWT       0.029700
     65 H21          3.6940     2.5820    -1.8790 hc         1 GWT       0.053700
     66 H22          1.3890     0.9220    -0.7190 hc         1 GWT       0.033700
     67 H23          1.7800     1.1330    -2.4190 hc         1 GWT       0.033700
     68 H24          3.8730    -0.1320    -2.1870 hc         1 GWT       0.043950
     69 H25          2.4970    -1.0700    -1.6200 hc         1 GWT       0.043950
     70 H26          4.7640    -4.1920     1.4660 h1         1 GWT       0.083700
     71 H27          2.8390    -5.0590    -0.1770 ho         1 GWT       0.454000
     72 H28          7.5530    -6.1620    -0.1380 hc         1 GWT       0.045367
     73 H29          6.6130    -5.9550     1.3530 hc         1 GWT       0.045367
     74 H30          5.9200    -6.8310    -0.0250 hc         1 GWT       0.045367
     75 H31          5.1310    -5.4490    -2.1530 hc         1 GWT       0.045367
     76 H32          5.5890    -3.7370    -2.2540 hc         1 GWT       0.045367
     77 H33          6.8370    -4.9910    -2.2730 hc         1 GWT       0.045367
     78 H34          7.7780    -3.9130    -0.3620 ho         1 GWT       0.451000
     79 H35          2.3680    -2.1580     1.2300 hn         1 GWT       0.326500
     80 H36         -0.6360    -2.4160    -1.5030 hc         1 GWT       0.082200
     81 H37         -1.3300    -3.8660    -0.8110 hc         1 GWT       0.082200
     82 H38         -2.5770    -1.2720    -2.2860 ha         1 GWT       0.126500
     83 H39         -4.7120    -0.1000    -1.8340 ha         1 GWT       0.119000
     84 H40         -7.6460     0.4910     1.5950 h1         1 GWT       0.050367
     85 H41         -6.9980    -1.1330     1.9030 h1         1 GWT       0.050367
     86 H42         -6.1250     0.3060     2.4930 h1         1 GWT       0.050367
     87 H43         -4.5990    -1.4920     2.2610 ha         1 GWT       0.119000
     88 H44         -2.5030    -2.6810     1.8070 ha         1 GWT       0.126500
     89 H45         -0.1450    -0.6370     0.3960 hn         1 GWT       0.336500
     90 H46          1.1440     0.9560     1.6700 h1         1 GWT       0.092700
     91 H47          1.3190     2.0410     3.8920 hc         1 GWT       0.065700
     92 H48          0.7770     0.5430     4.6850 hc         1 GWT       0.065700
     93 H49          2.3250     0.5810     3.8110 hc         1 GWT       0.065700
     94 H50         -1.2410     1.3730     3.3020 hn         1 GWT       0.335500
     95 H51         -3.3880     1.5400     2.1650 hx         1 GWT       0.117700
     96 H52         -2.5720     3.0860     1.8600 hx         1 GWT       0.117700
     97 H53         -3.8410     1.3490    -0.2290 hn         1 GWT       0.526000
     98 H54         -5.5700     2.3150     1.1760 hx         1 GWT       0.111450
     99 H55         -4.8480     3.9150     0.9460 hx         1 GWT       0.111450
    100 H56         -6.1200     2.1840    -1.2790 h1         1 GWT       0.093200
    101 H57         -6.7960     3.6820    -0.6010 h1         1 GWT       0.093200
    102 H58         -4.0540     2.3580    -2.6700 h1         1 GWT       0.093200
    103 H59         -3.3470     3.9720    -2.9130 h1         1 GWT       0.093200
    104 H60         -2.6690     4.0900    -0.5150 hx         1 GWT       0.111450
    105 H61         -2.0170     2.6020    -1.2200 hx         1 GWT       0.111450
    106 C10          5.9640    -4.6480    -0.2870 c3         1 GWT       0.159000
    107 C11          6.5470    -5.9780     0.2590 c3         1 GWT      -0.120600
    108 C12          5.8730    -4.7080    -1.8330 c3         1 GWT      -0.120600
    109 O13          6.9260    -3.6410     0.0420 oh         1 GWT      -0.668000
@<TRIPOS>BOND
     1     1     2 1   
     2     1    14 1   
     3     1    45 1   
     4     1    46 1   
     5     2     3 1   
     6     2    47 1   
     7     2    48 1   
     8     3     4 1   
     9     3    16 1   
    10     3    49 1   
    11     4     5 1   
    12     4    50 1   
    13     4    51 1   
    14     5    17 1   
    15     5    19 1   
    16     5    52 1   
    17     6    20 1   
    18     6    22 1   
    19     6    31 1   
    20     6    53 1   
    21     7    31 1   
    22     7    32 2   
    23     7    33 1   
    24     8     9 1   
    25     8    13 1   
    26     8    54 1   
    27     8    55 1   
    28     9    10 1   
    29     9    56 1   
    30     9    57 1   
    31    10    11 1   
    32    10    58 1   
    33    10    59 1   
    34    11    12 1   
    35    11    60 1   
    36    11    61 1   
    37    12    13 1   
    38    12    62 1   
    39    12    63 1   
    40    13    14 1   
    41    13    64 1   
    42    14    15 1   
    43    14    65 1   
    44    15    16 1   
    45    15    66 1   
    46    15    67 1   
    47    16    68 1   
    48    16    69 1   
    49    17    18 1   
    50    17    70 1   
    51    17   106 1   
    52    18    71 1   
    53    19    20 1   
    54    19    79 1   
    55    20    21 2   
    56    22    23 1   
    57    22    80 1   
    58    22    81 1   
    59    23    24 ar  
    60    23    30 ar  
    61    24    25 ar  
    62    24    82 1   
    63    25    26 ar  
    64    25    83 1   
    65    26    27 1   
    66    26    29 ar  
    67    27    28 1   
    68    28    84 1   
    69    28    85 1   
    70    28    86 1   
    71    29    30 ar  
    72    29    87 1   
    73    30    88 1   
    74    31    89 1   
    75    33    34 1   
    76    33    35 1   
    77    33    90 1   
    78    34    91 1   
    79    34    92 1   
    80    34    93 1   
    81    35    36 1   
    82    35    94 1   
    83    36    37 2   
    84    36    38 1   
    85    38    39 1   
    86    38    95 1   
    87    38    96 1   
    88    39    40 1   
    89    39    44 1   
    90    39    97 1   
    91    40    41 1   
    92    40    98 1   
    93    40    99 1   
    94    41    42 1   
    95    41   100 1   
    96    41   101 1   
    97    42    43 1   
    98    43    44 1   
    99    43   102 1   
   100    43   103 1   
   101    44   104 1   
   102    44   105 1   
   103    72   107 1   
   104    73   107 1   
   105    74   107 1   
   106    75   108 1   
   107    76   108 1   
   108    77   108 1   
   109    78   109 1   
   110   106   107 1   
   111   106   108 1   
   112   106   109 1   
@<TRIPOS>SUBSTRUCTURE
     1 GWT         1 TEMP              0 ****  ****    0 ROOT
