@<TRIPOS>MOLECULE
GWU
   69    72     1     0     0
SMALL
No Charge or Current Charge


@<TRIPOS>ATOM
      1 N1           3.8780    17.1060   -26.4110 nb         1 GWU      -0.300000
      2 C7           5.6250    24.2440   -26.5860 c3         1 GWU       0.167800
      3 C8           4.0340    25.3480   -25.0700 c3         1 GWU       0.185800
      4 N2           4.1060    18.9490   -27.9630 nb         1 GWU      -0.215000
      5 C9           2.8610    26.3250   -24.8480 c3         1 GWU      -0.086400
      6 O1           3.6900    29.2800   -29.8690 o          1 GWU      -0.625100
      7 C1           3.5610    17.7840   -27.5390 ca         1 GWU       0.183900
      8 C5           5.7720    21.6090   -28.3860 c5         1 GWU       0.272300
      9 C6           6.0450    23.9370   -28.0610 c5         1 GWU       0.124300
     10 N3           6.4590    19.5730   -25.3510 nc         1 GWU      -0.553100
     11 C4           6.6430    20.6250   -26.1720 cd         1 GWU       0.405700
     12 C3           5.4570    18.8680   -26.0070 ca         1 GWU      -0.101600
     13 O3           3.5090    21.6690   -29.5440 oh         1 GWU      -0.669000
     14 C2           5.0620    19.4770   -27.1720 ca         1 GWU       0.134500
     15 N4           5.8060    20.6210   -27.3050 na         1 GWU      -0.293300
     16 C13          4.5600    29.6170   -29.0840 c          1 GWU       0.648100
     17 N8           5.2970    30.7600   -29.2080 ns         1 GWU      -0.527900
     18 C14          5.1220    31.7470   -30.2730 c3         1 GWU       0.168300
     19 C15          4.2710    32.9220   -29.8100 ca         1 GWU      -0.100300
     20 C20          2.8660    32.8540   -29.8870 ca         1 GWU      -0.097500
     21 C19          2.0780    33.9370   -29.4590 ca         1 GWU      -0.108500
     22 C18          2.6910    35.0950   -28.9500 ca         1 GWU      -0.108000
     23 C17          4.0920    35.1680   -28.8690 ca         1 GWU      -0.108500
     24 C16          4.8800    34.0850   -29.2970 ca         1 GWU      -0.097500
     25 N7           4.9060    28.8900   -27.9790 ns         1 GWU      -0.519900
     26 C12          4.2790    27.6170   -27.5970 c3         1 GWU       0.105000
     27 C11          5.2430    26.6990   -26.8040 c3         1 GWU       0.158800
     28 C10          2.1330    26.0700   -23.5150 c3         1 GWU       0.151800
     29 N6           1.0130    27.0090   -23.3180 n8         1 GWU      -0.991200
     30 O            6.7370    22.6630   -28.1180 os         1 GWU      -0.455000
     31 C21          4.8620    23.7470   -29.0670 c5         1 GWU       0.150300
     32 O2           5.3160    23.7860   -30.4400 oh         1 GWU      -0.689000
     33 C22          4.3900    22.3260   -28.6090 c5         1 GWU       0.139300
     34 C            4.8300    17.6570   -25.6430 ca         1 GWU       0.448900
     35 N            5.1540    16.9760   -24.5120 nv         1 GWU      -1.062900
     36 H1           5.1880    23.3310   -26.1610 h1         1 GWU       0.044200
     37 H2           6.5370    24.4440   -26.0080 h1         1 GWU       0.044200
     38 H3           3.6460    24.3370   -24.8850 h1         1 GWU       0.029700
     39 H4           4.7950    25.5380   -24.3010 h1         1 GWU       0.029700
     40 H5           3.2390    27.3540   -24.8510 hc         1 GWU       0.059200
     41 H6           2.1480    26.2240   -25.6750 hc         1 GWU       0.059200
     42 H7           2.7890    17.3480   -28.1710 h5         1 GWU       0.048100
     43 H8           6.0680    21.0800   -29.3020 h2         1 GWU       0.124700
     44 H9           6.7300    24.7250   -28.3970 h1         1 GWU       0.072700
     45 H10          7.3590    21.4210   -26.0080 h5         1 GWU       0.064800
     46 H11          3.3150    20.7750   -29.1780 ho         1 GWU       0.513000
     47 H12          5.9900    30.9450   -28.4950 hn         1 GWU       0.307500
     48 H13          6.1130    32.1080   -30.5810 h1         1 GWU       0.058200
     49 H14          4.6590    31.2740   -31.1500 h1         1 GWU       0.058200
     50 H15          2.3840    31.9590   -30.2770 ha         1 GWU       0.108500
     51 H16          0.9930    33.8780   -29.5200 ha         1 GWU       0.111000
     52 H17          2.0810    35.9330   -28.6180 ha         1 GWU       0.111000
     53 H18          4.5680    36.0630   -28.4730 ha         1 GWU       0.111000
     54 H19          5.9640    34.1490   -29.2280 ha         1 GWU       0.108500
     55 H20          5.6380    29.2640   -27.3890 hn         1 GWU       0.292500
     56 H21          3.3820    27.8400   -27.0100 h1         1 GWU       0.055700
     57 H22          3.9630    27.0860   -28.5040 h1         1 GWU       0.055700
     58 H23          6.1310    26.5640   -27.4330 h1         1 GWU       0.039700
     59 H24          5.5870    27.2330   -25.9080 h1         1 GWU       0.039700
     60 H26          1.7360    25.0460   -23.5010 h1         1 GWU       0.024200
     61 H27          2.8370    26.1830   -22.6790 h1         1 GWU       0.024200
     62 H28          0.5900    26.8380   -22.3980 hn         1 GWU       0.394000
     63 H29          1.3860    27.9630   -23.2360 hn         1 GWU       0.394000
     64 H31          4.0700    24.4920   -28.9010 h1         1 GWU       0.080700
     65 H32          5.4830    24.7300   -30.6650 ho         1 GWU       0.507000
     66 H33          3.8670    22.4130   -27.6470 h1         1 GWU       0.039700
     67 H34          4.8960    15.9950   -24.4560 hn         1 GWU       0.505500
     68 H35          6.0110    17.2510   -24.0380 hn         1 GWU       0.505500
     69 N5           4.6660    25.3740   -26.4200 n3         1 GWU      -0.756600
@<TRIPOS>BOND
     1     1     7 ar  
     2     1    34 ar  
     3     2     9 1   
     4     2    36 1   
     5     2    37 1   
     6     2    69 1   
     7     3     5 1   
     8     3    38 1   
     9     3    39 1   
    10     3    69 1   
    11     4     7 ar  
    12     4    14 ar  
    13     5    28 1   
    14     5    40 1   
    15     5    41 1   
    16     6    16 2   
    17     7    42 1   
    18     8    15 1   
    19     8    30 1   
    20     8    33 1   
    21     8    43 1   
    22     9    30 1   
    23     9    31 1   
    24     9    44 1   
    25    10    11 2   
    26    10    12 1   
    27    11    15 1   
    28    11    45 1   
    29    12    14 ar  
    30    12    34 ar  
    31    13    33 1   
    32    13    46 1   
    33    14    15 1   
    34    16    17 1   
    35    16    25 1   
    36    17    18 1   
    37    17    47 1   
    38    18    19 1   
    39    18    48 1   
    40    18    49 1   
    41    19    20 ar  
    42    19    24 ar  
    43    20    21 ar  
    44    20    50 1   
    45    21    22 ar  
    46    21    51 1   
    47    22    23 ar  
    48    22    52 1   
    49    23    24 ar  
    50    23    53 1   
    51    24    54 1   
    52    25    26 1   
    53    25    55 1   
    54    26    27 1   
    55    26    56 1   
    56    26    57 1   
    57    27    58 1   
    58    27    59 1   
    59    27    69 1   
    60    28    29 1   
    61    28    60 1   
    62    28    61 1   
    63    29    62 1   
    64    29    63 1   
    65    31    32 1   
    66    31    33 1   
    67    31    64 1   
    68    32    65 1   
    69    33    66 1   
    70    34    35 1   
    71    35    67 1   
    72    35    68 1   
@<TRIPOS>SUBSTRUCTURE
     1 GWU         1 TEMP              0 ****  ****    0 ROOT
