@<TRIPOS>MOLECULE
GWU
   69    72     1     0     0
SMALL
abcg2


@<TRIPOS>ATOM
      1 N1           6.9980    16.9330   -28.0540 nb         1 GWU      -0.300000
      2 C7           4.6840    24.4860   -26.0770 c3         1 GWU       0.167800
      3 C8           3.3820    26.0440   -24.7620 c3         1 GWU       0.185800
      4 N2           6.1100    18.9820   -28.9020 nb         1 GWU      -0.215000
      5 C9           2.3340    27.1460   -24.8090 c3         1 GWU      -0.086400
      6 O1           3.1070    29.7330   -29.2480 o          1 GWU      -0.625100
      7 C1           6.6100    17.7640   -29.0180 ca         1 GWU       0.183900
      8 C5           5.0240    21.6460   -27.8790 c5         1 GWU       0.272300
      9 C6           4.7780    23.9220   -27.4910 c5         1 GWU       0.124300
     10 N3           6.1510    19.3050   -25.3630 nc         1 GWU      -0.553100
     11 C4           5.6580    20.4400   -25.7620 cd         1 GWU       0.405700
     12 C3           6.3790    18.6060   -26.5200 ca         1 GWU      -0.101600
     13 O3           2.6700    21.1020   -28.3350 oh         1 GWU      -0.669000
     14 C2           6.0150    19.3550   -27.6280 ca         1 GWU       0.134500
     15 N4           5.5480    20.5360   -27.1240 na         1 GWU      -0.293300
     16 C13          4.2950    29.4280   -29.2580 c          1 GWU       0.648100
     17 N8           5.2040    30.0950   -30.0200 ns         1 GWU      -0.527900
     18 C14          4.8370    31.2600   -30.7800 c3         1 GWU       0.168300
     19 C15          4.5850    32.5050   -29.9610 ca         1 GWU      -0.100300
     20 C20          3.6480    33.4390   -30.3920 ca         1 GWU      -0.097500
     21 C19          3.4360    34.6140   -29.6830 ca         1 GWU      -0.108500
     22 C18          4.1600    34.8700   -28.5270 ca         1 GWU      -0.108000
     23 C17          5.0950    33.9410   -28.0870 ca         1 GWU      -0.108500
     24 C16          5.3060    32.7690   -28.8010 ca         1 GWU      -0.097500
     25 N7           4.8110    28.4130   -28.5110 ns         1 GWU      -0.519900
     26 C12          3.9770    27.4340   -27.8540 c3         1 GWU       0.105000
     27 C11          4.6990    26.8450   -26.6480 c3         1 GWU       0.158800
     28 C10          1.6750    27.3460   -23.4530 c3         1 GWU       0.151800
     29 N6           0.6920    28.4190   -23.5050 n8         1 GWU      -0.991200
     30 O            5.6890    22.8170   -27.5020 os         1 GWU      -0.455000
     31 C21          3.4450    23.3860   -28.0250 c5         1 GWU       0.150300
     32 O2           3.3640    23.4410   -29.4270 oh         1 GWU      -0.689000
     33 C22          3.5370    21.9220   -27.6200 c5         1 GWU       0.139300
     34 C            6.8960    17.3230   -26.7780 ca         1 GWU       0.448900
     35 N            7.2690    16.4850   -25.8080 nv         1 GWU      -1.062900
     36 H1           4.1570    23.7710   -25.4390 h1         1 GWU       0.044200
     37 H2           5.7000    24.5830   -25.6630 h1         1 GWU       0.044200
     38 H3           2.9050    25.1340   -24.3880 h1         1 GWU       0.029700
     39 H4           4.1590    26.3110   -24.0260 h1         1 GWU       0.029700
     40 H5           2.7870    28.0920   -25.1240 hc         1 GWU       0.059200
     41 H6           1.5750    26.8940   -25.5540 hc         1 GWU       0.059200
     42 H7           6.7210    17.3870   -30.0290 h5         1 GWU       0.048100
     43 H8           5.1850    21.4000   -28.9340 h2         1 GWU       0.124700
     44 H9           5.1730    24.6890   -28.1660 h1         1 GWU       0.072700
     45 H10          5.3640    21.2500   -25.1110 h5         1 GWU       0.064800
     46 H11          2.6230    20.2480   -27.8930 ho         1 GWU       0.513000
     47 H12          6.1820    29.8680   -29.9530 hn         1 GWU       0.307500
     48 H13          5.6540    31.4520   -31.4780 h1         1 GWU       0.058200
     49 H14          3.9600    31.0470   -31.3950 h1         1 GWU       0.058200
     50 H15          3.0720    33.2440   -31.2900 ha         1 GWU       0.108500
     51 H16          2.6990    35.3270   -30.0320 ha         1 GWU       0.111000
     52 H17          3.9950    35.7830   -27.9700 ha         1 GWU       0.111000
     53 H18          5.6640    34.1310   -27.1860 ha         1 GWU       0.111000
     54 H19          6.0360    32.0520   -28.4440 ha         1 GWU       0.108500
     55 H20          5.7540    28.1170   -28.7100 hn         1 GWU       0.292500
     56 H21          3.0520    27.9120   -27.5350 h1         1 GWU       0.055700
     57 H22          3.6960    26.6230   -28.5370 h1         1 GWU       0.055700
     58 H23          5.6950    26.5050   -26.9570 h1         1 GWU       0.039700
     59 H24          4.8780    27.6340   -25.9100 h1         1 GWU       0.039700
     60 H26          1.1600    26.4250   -23.1680 h1         1 GWU       0.024200
     61 H27          2.4570    27.5060   -22.6950 h1         1 GWU       0.024200
     62 H28          0.2400    28.5050   -22.6040 hn         1 GWU       0.394000
     63 H29          1.1700    29.3000   -23.6520 hn         1 GWU       0.394000
     64 H31          2.6010    23.8970   -27.5480 h1         1 GWU       0.080700
     65 H32          3.3580    24.3650   -29.6950 ho         1 GWU       0.507000
     66 H33          3.3530    21.8600   -26.5390 h1         1 GWU       0.039700
     67 H34          7.7090    15.6110   -26.0410 hn         1 GWU       0.505500
     68 H35          7.2810    16.7810   -24.8480 hn         1 GWU       0.505500
     69 N5           3.9550    25.7390   -26.0620 n3         1 GWU      -0.756600
@<TRIPOS>BOND
     1     1     7 ar  
     2     1    34 ar  
     3     2     9 1   
     4     2    36 1   
     5     2    37 1   
     6     2    69 1   
     7     3     5 1   
     8     3    38 1   
     9     3    39 1   
    10     3    69 1   
    11     4     7 ar  
    12     4    14 ar  
    13     5    28 1   
    14     5    40 1   
    15     5    41 1   
    16     6    16 2   
    17     7    42 1   
    18     8    15 1   
    19     8    30 1   
    20     8    33 1   
    21     8    43 1   
    22     9    30 1   
    23     9    31 1   
    24     9    44 1   
    25    10    11 2   
    26    10    12 1   
    27    11    15 1   
    28    11    45 1   
    29    12    14 ar  
    30    12    34 ar  
    31    13    33 1   
    32    13    46 1   
    33    14    15 1   
    34    16    17 1   
    35    16    25 1   
    36    17    18 1   
    37    17    47 1   
    38    18    19 1   
    39    18    48 1   
    40    18    49 1   
    41    19    20 ar  
    42    19    24 ar  
    43    20    21 ar  
    44    20    50 1   
    45    21    22 ar  
    46    21    51 1   
    47    22    23 ar  
    48    22    52 1   
    49    23    24 ar  
    50    23    53 1   
    51    24    54 1   
    52    25    26 1   
    53    25    55 1   
    54    26    27 1   
    55    26    56 1   
    56    26    57 1   
    57    27    58 1   
    58    27    59 1   
    59    27    69 1   
    60    28    29 1   
    61    28    60 1   
    62    28    61 1   
    63    29    62 1   
    64    29    63 1   
    65    31    32 1   
    66    31    33 1   
    67    31    64 1   
    68    32    65 1   
    69    33    66 1   
    70    34    35 1   
    71    35    67 1   
    72    35    68 1   
@<TRIPOS>SUBSTRUCTURE
     1 GWU         1 TEMP              0 ****  ****    0 ROOT
