@<TRIPOS>MOLECULE
GWV
   34    34     1     0     0
SMALL
bcc


@<TRIPOS>ATOM
      1 N1          -3.7270     0.0060     0.2450 nh         1 GWV      -0.699000
      2 C4           0.3930     0.0260    -0.6540 ca         1 GWV      -0.150300
      3 C5          -0.3930    -1.0990    -0.8720 ca         1 GWV      -0.068000
      4 C6          -1.7480    -1.1210    -0.5780 ca         1 GWV      -0.215500
      5 C7          -2.3890     0.0100    -0.0420 ca         1 GWV       0.204600
      6 C8          -1.5910     1.1500     0.1830 ca         1 GWV      -0.215500
      7 C10         -4.3340     1.1590     0.8650 c3         1 GWV       0.224100
      8 C11         -4.4890    -1.2070     0.0870 c3         1 GWV       0.224100
      9 C9          -0.2400     1.1430    -0.1140 ca         1 GWV      -0.068000
     10 N            2.6280    -0.0800     0.3020 n7         1 GWV      -0.807200
     11 C1           4.0650    -0.2480     0.1100 c3         1 GWV       0.174500
     12 C2           4.6960     1.0380    -0.4110 c3         1 GWV      -0.089600
     13 C            4.6940    -0.6510     1.4360 c3         1 GWV      -0.089600
     14 H1           0.0610    -1.9940    -1.2840 ha         1 GWV       0.126000
     15 H2          -2.3020    -2.0290    -0.7730 ha         1 GWV       0.127500
     16 H3          -2.0210     2.0520     0.5950 ha         1 GWV       0.127500
     17 H4          -5.3890     0.9620     1.0330 h1         1 GWV       0.033700
     18 H5          -3.8840     1.4030     1.8330 h1         1 GWV       0.033700
     19 H6          -4.2650     2.0490     0.2330 h1         1 GWV       0.033700
     20 H7          -4.1140    -2.0240     0.7120 h1         1 GWV       0.033700
     21 H8          -5.5220    -1.0240     0.3700 h1         1 GWV       0.033700
     22 H9          -4.4920    -1.5570    -0.9490 h1         1 GWV       0.033700
     23 H10          0.3370     2.0410     0.0800 ha         1 GWV       0.126000
     24 H11          2.1040    -0.7860    -1.6410 h1         1 GWV       0.031200
     25 H12          2.1420     0.9570    -1.4370 h1         1 GWV       0.031200
     26 H13          2.2780    -0.8860     0.8070 hn         1 GWV       0.353800
     27 H15          4.2710    -1.0470    -0.6240 h1         1 GWV       0.013700
     28 H16          4.2940     1.3340    -1.3800 hc         1 GWV       0.036700
     29 H17          4.5270     1.8570     0.2920 hc         1 GWV       0.036700
     30 H18          5.7720     0.9110    -0.5330 hc         1 GWV       0.036700
     31 H19          4.2500    -1.5700     1.8250 hc         1 GWV       0.036700
     32 H20          5.7640    -0.8250     1.3210 hc         1 GWV       0.036700
     33 H21          4.5570     0.1330     2.1830 hc         1 GWV       0.036700
     34 C3           1.8680     0.0260    -0.9350 c3         1 GWV       0.216100
@<TRIPOS>BOND
     1     1     5 1   
     2     1     7 1   
     3     1     8 1   
     4     2     3 ar  
     5     2     9 ar  
     6     2    34 1   
     7     3     4 ar  
     8     3    14 1   
     9     4     5 ar  
    10     4    15 1   
    11     5     6 ar  
    12     6     9 ar  
    13     6    16 1   
    14     7    17 1   
    15     7    18 1   
    16     7    19 1   
    17     8    20 1   
    18     8    21 1   
    19     8    22 1   
    20     9    23 1   
    21    10    11 1   
    22    10    26 1   
    23    10    34 1   
    24    11    12 1   
    25    11    13 1   
    26    11    27 1   
    27    12    28 1   
    28    12    29 1   
    29    12    30 1   
    30    13    31 1   
    31    13    32 1   
    32    13    33 1   
    33    24    34 1   
    34    25    34 1   
@<TRIPOS>SUBSTRUCTURE
     1 GWV         1 TEMP              0 ****  ****    0 ROOT
