@<TRIPOS>MOLECULE
GWV
   34    34     1     0     0
SMALL
No Charge or Current Charge


@<TRIPOS>ATOM
      1 N1          -3.7540    -0.0040     0.2990 nh         1 GWV      -0.837400
      2 C4           0.4000    -0.0260    -0.6270 ca         1 GWV      -0.150300
      3 C5          -0.3410    -1.2210    -0.6550 ca         1 GWV      -0.050000
      4 C6          -1.7130    -1.2120    -0.3490 ca         1 GWV      -0.197500
      5 C7          -2.3690    -0.0110    -0.0090 ca         1 GWV       0.343000
      6 C8          -1.6190     1.1820     0.0170 ca         1 GWV      -0.197500
      7 C10         -4.3410     1.0160     1.2000 c3         1 GWV       0.224100
      8 C11         -4.6790    -1.0160    -0.2650 c3         1 GWV       0.224100
      9 C9          -0.2470     1.1760    -0.2900 ca         1 GWV      -0.050000
     10 N            2.6770    -0.0890     0.2760 n7         1 GWV      -0.862400
     11 C1           4.1360    -0.2190     0.1100 c3         1 GWV       0.174500
     12 C2           4.7500     1.0870    -0.4440 c3         1 GWV      -0.089600
     13 C            4.7540    -0.6080     1.4680 c3         1 GWV      -0.089600
     14 H1           0.1460    -2.1600    -0.9120 ha         1 GWV       0.108000
     15 H2          -2.2590    -2.1500    -0.3670 ha         1 GWV       0.109500
     16 H3          -2.0950     2.1250     0.2630 ha         1 GWV       0.109500
     17 H4          -5.2640     0.6420     1.6650 h1         1 GWV       0.033700
     18 H5          -3.6410     1.2660     2.0090 h1         1 GWV       0.033700
     19 H6          -4.5790     1.9320     0.6420 h1         1 GWV       0.033700
     20 H7          -4.6660    -1.9300     0.3430 h1         1 GWV       0.033700
     21 H8          -5.7070    -0.6320    -0.2950 h1         1 GWV       0.033700
     22 H9          -4.3900    -1.2710    -1.2940 h1         1 GWV       0.033700
     23 H10          0.3150     2.1080    -0.2650 ha         1 GWV       0.108000
     24 H11          2.1050    -0.8960    -1.6030 h1         1 GWV       0.031200
     25 H12          2.1200     0.8740    -1.5400 h1         1 GWV       0.031200
     26 H13          2.3510    -0.9110     0.7940 hn         1 GWV       0.409000
     27 H15          4.3570    -1.0310    -0.5960 h1         1 GWV       0.013700
     28 H16          4.3800     1.3040    -1.4520 hc         1 GWV       0.036700
     29 H17          4.5110     1.9380     0.2050 hc         1 GWV       0.036700
     30 H18          5.8420     1.0000    -0.5040 hc         1 GWV       0.036700
     31 H19          4.3300    -1.5510     1.8330 hc         1 GWV       0.036700
     32 H20          5.8380    -0.7420     1.3710 hc         1 GWV       0.036700
     33 H21          4.5710     0.1690     2.2200 hc         1 GWV       0.036700
     34 C3           1.8830    -0.0300    -0.9630 c3         1 GWV       0.216100
@<TRIPOS>BOND
     1     1     5 1   
     2     1     7 1   
     3     1     8 1   
     4     2     3 ar  
     5     2     9 ar  
     6     2    34 1   
     7     3     4 ar  
     8     3    14 1   
     9     4     5 ar  
    10     4    15 1   
    11     5     6 ar  
    12     6     9 ar  
    13     6    16 1   
    14     7    17 1   
    15     7    18 1   
    16     7    19 1   
    17     8    20 1   
    18     8    21 1   
    19     8    22 1   
    20     9    23 1   
    21    10    11 1   
    22    10    26 1   
    23    10    34 1   
    24    11    12 1   
    25    11    13 1   
    26    11    27 1   
    27    12    28 1   
    28    12    29 1   
    29    12    30 1   
    30    13    31 1   
    31    13    32 1   
    32    13    33 1   
    33    24    34 1   
    34    25    34 1   
@<TRIPOS>SUBSTRUCTURE
     1 GWV         1 TEMP              0 ****  ****    0 ROOT
