@<TRIPOS>MOLECULE
GWX
   79    81     1     0     0
SMALL
No Charge or Current Charge


@<TRIPOS>ATOM
      1 C1           0.5440     0.0840     0.6590 c3         1 GWX       0.055700
      2 N2          -0.4960     1.1300     0.7980 ns         1 GWX      -0.529900
      3 C3           1.9460     0.6470     1.0440 c          1 GWX       0.590100
      4 C4          -1.4750     1.3930    -0.1200 c          1 GWX       0.657100
      5 N5          -2.3540     2.3500     0.3150 ns         1 GWX      -0.460900
      6 O6          -1.5510     0.8390    -1.2030 o          1 GWX      -0.650100
      7 O7           2.1000     1.7160     1.6260 o          1 GWX      -0.614100
      8 N8           3.0050    -0.1620     0.6700 ns         1 GWX      -0.495900
      9 C9           0.1860    -1.1650     1.5150 c3         1 GWX      -0.083400
     10 C10         -1.1470    -1.8950     1.1580 c6         1 GWX      -0.057700
     11 C11         -1.4970    -2.9700     2.2250 c6         1 GWX      -0.070900
     12 C12         -2.8370    -3.6760     1.9000 c6         1 GWX      -0.072400
     13 C13         -2.8150    -4.3010     0.4850 c6         1 GWX      -0.073400
     14 C14         -2.4480    -3.2490    -0.5890 c6         1 GWX      -0.072400
     15 C15         -1.1090    -2.5480    -0.2550 c6         1 GWX      -0.070900
     16 C16         -3.5570     2.8050    -0.4250 c3         1 GWX      -0.040300
     17 C17         -3.7250     4.3510    -0.2900 c          1 GWX       0.712000
     18 O18         -3.7370     4.8430     0.8310 o          1 GWX      -0.725500
     19 O19         -3.7610     5.0190    -1.3140 o          1 GWX      -0.725500
     20 C20         -4.8410     2.0550     0.0220 c3         1 GWX      -0.072400
     21 C21         -4.8170     0.5260    -0.2180 c3         1 GWX      -0.076400
     22 C22         -6.1560    -0.1590     0.1350 c3         1 GWX      -0.080400
     23 C23         -6.1360    -1.6830    -0.1000 c3         1 GWX       0.145800
     24 N24         -7.4380    -2.2970     0.2140 n8         1 GWX      -0.998200
     25 C25          4.3800     0.2920     0.9350 c5         1 GWX       0.110700
     26 C26          5.2240    -1.0030     1.1660 c5         1 GWX      -0.089400
     27 C27          5.0030     0.9070    -0.3900 c5         1 GWX      -0.056000
     28 C28          6.3090    -0.9070     0.0360 c5         1 GWX      -0.067700
     29 C29          6.5370     0.6340    -0.1440 c5         1 GWX      -0.050000
     30 C30          5.5630    -1.3250    -1.2760 c5         1 GWX      -0.079400
     31 C31          4.6960    -0.0670    -1.5990 c5         1 GWX      -0.076400
     32 C32          7.4960     1.0120    -1.3250 c3         1 GWX      -0.075100
     33 C33          7.1630     1.3450     1.1040 c3         1 GWX      -0.075100
     34 C34          4.5960     2.3760    -0.6560 c3         1 GWX      -0.074100
     35 H1           0.6180    -0.2130    -0.3950 h1         1 GWX       0.091700
     36 H2          -0.4970     1.6870     1.6430 hn         1 GWX       0.315500
     37 H91C         1.0100    -1.8860     1.4510 hc         1 GWX       0.037200
     38 H92C         0.1530    -0.8470     2.5650 hc         1 GWX       0.037200
     39 H8           2.7870    -1.0300     0.1980 hn         1 GWX       0.310500
     40 H5          -2.1780     2.7590     1.2230 hn         1 GWX       0.278500
     41 H16         -3.4010     2.6020    -1.4920 h1         1 GWX       0.061700
     42 H25          4.4540     0.9760     1.7920 h1         1 GWX       0.079700
     43 H10         -1.9420    -1.1370     1.1740 hc         1 GWX       0.073700
     44 H111        -0.6920    -3.7160     2.2830 hc         1 GWX       0.036950
     45 H112        -1.5630    -2.5050     3.2180 hc         1 GWX       0.036950
     46 H151        -0.9000    -1.7950    -1.0250 hc         1 GWX       0.036950
     47 H152        -0.2890    -3.2780    -0.3070 hc         1 GWX       0.036950
     48 H121        -3.0380    -4.4550     2.6480 hc         1 GWX       0.038200
     49 H122        -3.6610    -2.9530     1.9750 hc         1 GWX       0.038200
     50 H131        -2.0890    -5.1250     0.4570 hc         1 GWX       0.027700
     51 H132        -3.7960    -4.7410     0.2560 hc         1 GWX       0.027700
     52 H141        -2.3810    -3.7300    -1.5740 hc         1 GWX       0.038200
     53 H142        -3.2460    -2.4980    -0.6640 hc         1 GWX       0.038200
     54 H201        -5.0190     2.2490     1.0870 hc         1 GWX       0.047200
     55 H202        -5.6930     2.4820    -0.5200 hc         1 GWX       0.047200
     56 H211        -4.5780     0.3290    -1.2710 hc         1 GWX       0.032700
     57 H212        -4.0190     0.0730     0.3830 hc         1 GWX       0.032700
     58 H221        -6.3960     0.0410     1.1860 hc         1 GWX       0.041700
     59 H222        -6.9560     0.2890    -0.4690 hc         1 GWX       0.041700
     60 H231        -5.8920    -1.8950    -1.1500 h1         1 GWX       0.022700
     61 H232        -5.3690    -2.1450     0.5360 h1         1 GWX       0.022700
     62 H241        -8.1450    -1.9270    -0.4320 hn         1 GWX       0.382500
     63 H242        -7.4000    -3.2970    -0.0150 hn         1 GWX       0.382500
     64 H261         5.6870    -0.9890     2.1600 hc         1 GWX       0.043200
     65 H262         4.6450    -1.9340     1.1210 hc         1 GWX       0.043200
     66 H28          7.2140    -1.4920     0.2380 hc         1 GWX       0.055700
     67 H311         3.6370    -0.3080    -1.7330 hc         1 GWX       0.052200
     68 H312         4.9980     0.3780    -2.5540 hc         1 GWX       0.052200
     69 H341         4.8340     3.0170     0.2010 hc         1 GWX       0.045700
     70 H342         5.1150     2.7820    -1.5320 hc         1 GWX       0.045700
     71 H343         3.5190     2.4580    -0.8440 hc         1 GWX       0.045700
     72 H301         6.2670    -1.5420    -2.0880 hc         1 GWX       0.037200
     73 H302         4.9560    -2.2290    -1.1510 hc         1 GWX       0.037200
     74 H321         7.5390     2.0990    -1.4660 hc         1 GWX       0.031200
     75 H322         8.5180     0.6710    -1.1200 hc         1 GWX       0.031200
     76 H323         7.2170     0.5800    -2.2910 hc         1 GWX       0.031200
     77 H331         6.6330     1.1610     2.0440 hc         1 GWX       0.031200
     78 H332         8.1960     1.0110     1.2640 hc         1 GWX       0.031200
     79 H333         7.1920     2.4330     0.9650 hc         1 GWX       0.031200
@<TRIPOS>BOND
     1     1     2 1   
     2     1     3 1   
     3     1     9 1   
     4     1    35 1   
     5     2     4 1   
     6     2    36 1   
     7     3     7 2   
     8     3     8 1   
     9     4     5 1   
    10     4     6 2   
    11     5    16 1   
    12     5    40 1   
    13     8    25 1   
    14     8    39 1   
    15     9    10 1   
    16     9    37 1   
    17     9    38 1   
    18    10    11 1   
    19    10    15 1   
    20    10    43 1   
    21    11    12 1   
    22    11    44 1   
    23    11    45 1   
    24    12    13 1   
    25    12    48 1   
    26    12    49 1   
    27    13    14 1   
    28    13    50 1   
    29    13    51 1   
    30    14    15 1   
    31    14    52 1   
    32    14    53 1   
    33    15    46 1   
    34    15    47 1   
    35    16    17 1   
    36    16    20 1   
    37    16    41 1   
    38    17    18 1   
    39    17    19 1   
    40    20    21 1   
    41    20    54 1   
    42    20    55 1   
    43    21    22 1   
    44    21    56 1   
    45    21    57 1   
    46    22    23 1   
    47    22    58 1   
    48    22    59 1   
    49    23    24 1   
    50    23    60 1   
    51    23    61 1   
    52    24    62 1   
    53    24    63 1   
    54    25    26 1   
    55    25    27 1   
    56    25    42 1   
    57    26    28 1   
    58    26    64 1   
    59    26    65 1   
    60    27    29 1   
    61    27    31 1   
    62    27    34 1   
    63    28    29 1   
    64    28    30 1   
    65    28    66 1   
    66    29    32 1   
    67    29    33 1   
    68    30    31 1   
    69    30    72 1   
    70    30    73 1   
    71    31    67 1   
    72    31    68 1   
    73    32    74 1   
    74    32    75 1   
    75    32    76 1   
    76    33    77 1   
    77    33    78 1   
    78    33    79 1   
    79    34    69 1   
    80    34    70 1   
    81    34    71 1   
@<TRIPOS>SUBSTRUCTURE
     1 GWX         1 TEMP              0 ****  ****    0 ROOT
