@<TRIPOS>MOLECULE
GWX
   79    81     1     0     0
SMALL
bcc


@<TRIPOS>ATOM
      1 C1           0.5110    -0.9990     0.2980 c3         1 GWX       0.055700
      2 N2          -0.6850    -0.2510     0.5690 ns         1 GWX      -0.596900
      3 C3           1.7000    -0.2750     0.9300 c          1 GWX       0.657100
      4 C4          -1.5780     0.1340    -0.3830 c          1 GWX       0.791100
      5 N5          -2.6050     0.8940     0.0900 ns         1 GWX      -0.527900
      6 O6          -1.5020    -0.2250    -1.5540 o          1 GWX      -0.650100
      7 O7           1.5720     0.3680     1.9620 o          1 GWX      -0.614100
      8 N8           2.8670    -0.4540     0.2950 ns         1 GWX      -0.562900
      9 C9           0.4420    -2.4250     0.8660 c3         1 GWX      -0.083400
     10 C10         -0.6360    -3.3010     0.2320 c6         1 GWX      -0.057700
     11 C11         -0.8290    -4.5800     1.0470 c6         1 GWX      -0.070900
     12 C12         -1.8950    -5.4880     0.4420 c6         1 GWX      -0.072400
     13 C13         -1.5710    -5.8290    -1.0080 c6         1 GWX      -0.073400
     14 C14         -1.3790    -4.5620    -1.8350 c6         1 GWX      -0.072400
     15 C15         -0.3220    -3.6450    -1.2240 c6         1 GWX      -0.070900
     16 C16         -3.4250     1.6470    -0.8350 c3         1 GWX      -0.040300
     17 C17         -2.6210     2.6760    -1.6680 c          1 GWX       0.922600
     18 O18         -1.4870     2.9860    -1.2640 o          1 GWX      -0.830800
     19 O19         -3.2170     3.1320    -2.6660 o          1 GWX      -0.830800
     20 C20         -4.5220     2.3690    -0.0510 c3         1 GWX      -0.072400
     21 C21         -5.4620     1.4490     0.7190 c3         1 GWX      -0.076400
     22 C22         -6.5140     2.2210     1.5050 c3         1 GWX      -0.080400
     23 C23         -7.4600     1.3130     2.2760 c3         1 GWX       0.145800
     24 N24         -8.4120     2.0900     3.0570 n8         1 GWX      -0.887800
     25 C25          4.1380     0.0600     0.7510 c5         1 GWX       0.110700
     26 C26          5.3040    -0.9480     0.5790 c5         1 GWX      -0.089400
     27 C27          4.6350     1.3210     0.0000 c5         1 GWX      -0.056000
     28 C28          6.3420    -0.1440    -0.2120 c5         1 GWX      -0.067700
     29 C29          6.1530     1.2870     0.3410 c5         1 GWX      -0.050000
     30 C30          5.8090    -0.0270    -1.6480 c5         1 GWX      -0.079400
     31 C31          4.6490     0.9890    -1.5020 c5         1 GWX      -0.076400
     32 C32          6.9770     2.3460    -0.3900 c3         1 GWX      -0.075100
     33 C33          6.4820     1.4260     1.8280 c3         1 GWX      -0.075100
     34 C34          3.8660     2.5750     0.3480 c3         1 GWX      -0.074100
     35 H1           0.6440    -1.0410    -0.7830 h1         1 GWX       0.091700
     36 H2          -0.7830     0.1010     1.5080 hn         1 GWX       0.315500
     37 H91C         1.4170    -2.9090     0.7440 hc         1 GWX       0.037200
     38 H92C         0.2650    -2.3520     1.9440 hc         1 GWX       0.037200
     39 H8           2.8600    -0.9960    -0.5550 hn         1 GWX       0.310500
     40 H5          -2.4420     1.3510     0.9750 hn         1 GWX       0.278500
     41 H16         -3.9070     0.9460    -1.5220 h1         1 GWX       0.061700
     42 H25          4.0020     0.3040     1.8050 h1         1 GWX       0.079700
     43 H10         -1.5830    -2.7470     0.2540 hc         1 GWX       0.073700
     44 H111         0.1230    -5.1240     1.0940 hc         1 GWX       0.036950
     45 H112        -1.0920    -4.3270     2.0780 hc         1 GWX       0.036950
     46 H151        -0.2490    -2.7340    -1.8220 hc         1 GWX       0.036950
     47 H152         0.6580    -4.1360    -1.2690 hc         1 GWX       0.036950
     48 H121        -1.9920    -6.4000     1.0360 hc         1 GWX       0.038200
     49 H122        -2.8660    -4.9830     0.4860 hc         1 GWX       0.038200
     50 H131        -0.6560    -6.4290    -1.0430 hc         1 GWX       0.027700
     51 H132        -2.3630    -6.4470    -1.4400 hc         1 GWX       0.027700
     52 H141        -1.1040    -4.8170    -2.8620 hc         1 GWX       0.038200
     53 H142        -2.3300    -4.0220    -1.8940 hc         1 GWX       0.038200
     54 H201        -4.0540     3.0780     0.6430 hc         1 GWX       0.047200
     55 H202        -5.0990     2.9690    -0.7580 hc         1 GWX       0.047200
     56 H211        -5.9530     0.7670     0.0170 hc         1 GWX       0.032700
     57 H212        -4.8890     0.8200     1.4070 hc         1 GWX       0.032700
     58 H221        -6.0230     2.9020     2.2080 hc         1 GWX       0.041700
     59 H222        -7.0950     2.8500     0.8200 hc         1 GWX       0.041700
     60 H231        -7.9380     0.6170     1.5700 h1         1 GWX       0.022700
     61 H232        -6.8780     0.6950     2.9650 h1         1 GWX       0.022700
     62 H241        -9.0240     2.5970     2.4280 hn         1 GWX       0.327300
     63 H242        -9.0170     1.4640     3.5730 hn         1 GWX       0.327300
     64 H261         5.6810    -1.2760     1.5480 hc         1 GWX       0.043200
     65 H262         4.9930    -1.8460     0.0410 hc         1 GWX       0.043200
     66 H28          7.3570    -0.5400    -0.1430 hc         1 GWX       0.055700
     67 H311         3.6890     0.6000    -1.8460 hc         1 GWX       0.052200
     68 H312         4.8290     1.8930    -2.0860 hc         1 GWX       0.052200
     69 H341         3.8840     2.7740     1.4210 hc         1 GWX       0.045700
     70 H342         4.2790     3.4480    -0.1620 hc         1 GWX       0.045700
     71 H343         2.8190     2.4890     0.0510 hc         1 GWX       0.045700
     72 H301         6.5740     0.3320    -2.3380 hc         1 GWX       0.037200
     73 H302         5.4730    -0.9940    -2.0290 hc         1 GWX       0.037200
     74 H321         6.7060     3.3480    -0.0490 hc         1 GWX       0.031200
     75 H322         8.0390     2.2080    -0.1740 hc         1 GWX       0.031200
     76 H323         6.8650     2.3340    -1.4730 hc         1 GWX       0.031200
     77 H331         5.9600     0.7250     2.4780 hc         1 GWX       0.031200
     78 H332         7.5510     1.2720     1.9870 hc         1 GWX       0.031200
     79 H333         6.2450     2.4320     2.1830 hc         1 GWX       0.031200
@<TRIPOS>BOND
     1     1     2 1   
     2     1     3 1   
     3     1     9 1   
     4     1    35 1   
     5     2     4 1   
     6     2    36 1   
     7     3     7 2   
     8     3     8 1   
     9     4     5 1   
    10     4     6 2   
    11     5    16 1   
    12     5    40 1   
    13     8    25 1   
    14     8    39 1   
    15     9    10 1   
    16     9    37 1   
    17     9    38 1   
    18    10    11 1   
    19    10    15 1   
    20    10    43 1   
    21    11    12 1   
    22    11    44 1   
    23    11    45 1   
    24    12    13 1   
    25    12    48 1   
    26    12    49 1   
    27    13    14 1   
    28    13    50 1   
    29    13    51 1   
    30    14    15 1   
    31    14    52 1   
    32    14    53 1   
    33    15    46 1   
    34    15    47 1   
    35    16    17 1   
    36    16    20 1   
    37    16    41 1   
    38    17    18 1   
    39    17    19 1   
    40    20    21 1   
    41    20    54 1   
    42    20    55 1   
    43    21    22 1   
    44    21    56 1   
    45    21    57 1   
    46    22    23 1   
    47    22    58 1   
    48    22    59 1   
    49    23    24 1   
    50    23    60 1   
    51    23    61 1   
    52    24    62 1   
    53    24    63 1   
    54    25    26 1   
    55    25    27 1   
    56    25    42 1   
    57    26    28 1   
    58    26    64 1   
    59    26    65 1   
    60    27    29 1   
    61    27    31 1   
    62    27    34 1   
    63    28    29 1   
    64    28    30 1   
    65    28    66 1   
    66    29    32 1   
    67    29    33 1   
    68    30    31 1   
    69    30    72 1   
    70    30    73 1   
    71    31    67 1   
    72    31    68 1   
    73    32    74 1   
    74    32    75 1   
    75    32    76 1   
    76    33    77 1   
    77    33    78 1   
    78    33    79 1   
    79    34    69 1   
    80    34    70 1   
    81    34    71 1   
@<TRIPOS>SUBSTRUCTURE
     1 GWX         1 TEMP              0 ****  ****    0 ROOT
