@<TRIPOS>MOLECULE
GWY
   29    30     1     0     0
SMALL
bcc


@<TRIPOS>ATOM
      1 N1           2.3220    -1.0700     0.9470 nb         1 GWY      -0.790000
      2 C4          -4.4900     0.2690    -0.3580 c5         1 GWY       0.132400
      3 C5          -2.4010     0.8380     0.5020 c5         1 GWY       0.138400
      4 C6           1.3010    -0.6150     0.2130 ca         1 GWY       0.722200
      5 C7           3.5610    -0.8570     0.5570 ca         1 GWY       0.688900
      6 C8           2.9600     0.2780    -1.2680 ca         1 GWY       0.463200
      7 C9           1.6300     0.1460    -0.9360 ca         1 GWY      -0.274200
      8 N2           3.9500    -0.2330    -0.5410 nb         1 GWY      -0.722000
      9 N            0.0520    -0.8880     0.6720 nh         1 GWY      -0.760300
     10 C           -0.0430    -1.5120     1.9830 c3         1 GWY       0.200100
     11 C1          -1.0550    -1.2310    -0.2210 c3         1 GWY       0.225800
     12 C2          -2.3930    -0.6600     0.2250 c5         1 GWY      -0.110700
     13 O           -3.7500     1.2540     0.3540 os         1 GWY      -0.416600
     14 C3          -3.4800    -0.7620    -0.8420 c5         1 GWY      -0.112400
     15 H2          -5.0330     0.7390    -1.1810 h1         1 GWY       0.044700
     16 H3          -2.0580     1.0840     1.5090 h1         1 GWY       0.053700
     17 H4          -1.7560     1.3690    -0.2090 h1         1 GWY       0.053700
     18 H5           4.3400    -1.2450     1.2040 h5         1 GWY       0.051100
     19 H6           3.2350     0.8400    -2.1530 h4         1 GWY       0.034100
     20 H7           0.5610    -0.9790     2.7120 h1         1 GWY       0.046367
     21 H8          -1.0770    -1.4740     2.3130 h1         1 GWY       0.046367
     22 H9           0.2730    -2.5580     1.9680 h1         1 GWY       0.046367
     23 H10         -0.8380    -0.8960    -1.2300 h1         1 GWY       0.054200
     24 H11         -1.1320    -2.3230    -0.2730 h1         1 GWY       0.054200
     25 H12         -2.7440    -1.1850     1.1190 hc         1 GWY       0.061700
     26 H13         -3.9110    -1.7600    -0.9280 hc         1 GWY       0.056200
     27 H14         -3.0770    -0.4840    -1.8200 hc         1 GWY       0.056200
     28 CL           0.4930     1.0240    -1.9000 cl         1 GWY      -0.087400
     29 H1          -5.2270    -0.1920     0.3090 h1         1 GWY       0.044700
@<TRIPOS>BOND
     1     1     4 ar  
     2     1     5 ar  
     3     2    13 1   
     4     2    14 1   
     5     2    15 1   
     6     2    29 1   
     7     3    12 1   
     8     3    13 1   
     9     3    16 1   
    10     3    17 1   
    11     4     7 ar  
    12     4     9 1   
    13     5     8 ar  
    14     5    18 1   
    15     6     7 ar  
    16     6     8 ar  
    17     6    19 1   
    18     7    28 1   
    19     9    10 1   
    20     9    11 1   
    21    10    20 1   
    22    10    21 1   
    23    10    22 1   
    24    11    12 1   
    25    11    23 1   
    26    11    24 1   
    27    12    14 1   
    28    12    25 1   
    29    14    26 1   
    30    14    27 1   
@<TRIPOS>SUBSTRUCTURE
     1 GWY         1 TEMP              0 ****  ****    0 ROOT
