@<TRIPOS>MOLECULE
GWY
   29    30     1     0     0
SMALL
No Charge or Current Charge


@<TRIPOS>ATOM
      1 N1           2.3400    -1.5290     0.6430 nb         1 GWY      -0.264000
      2 C4          -4.6060     0.0530    -0.4430 c5         1 GWY       0.155600
      3 C5          -2.5380     0.8530     0.3040 c5         1 GWY       0.161600
      4 C6           1.4170    -0.6270     0.2470 ca         1 GWY       0.393900
      5 C7           3.5900    -1.3780     0.1610 ca         1 GWY       0.162900
      6 C8           3.0990     0.4910    -1.0700 ca         1 GWY       0.134900
      7 C9           1.7650     0.4300    -0.6300 ca         1 GWY      -0.052000
      8 N2           4.0180    -0.4140    -0.6780 nb         1 GWY      -0.196000
      9 N            0.1080    -0.8120     0.7590 nh         1 GWY      -0.760300
     10 C           -0.0800    -1.1770     2.1860 c3         1 GWY       0.200100
     11 C1          -0.9780    -1.1880    -0.1790 c3         1 GWY       0.225800
     12 C2          -2.3900    -0.6790     0.2050 c5         1 GWY      -0.110700
     13 O           -3.9650     1.0180     0.4260 os         1 GWY      -0.463000
     14 C3          -3.4920    -0.9560    -0.8540 c5         1 GWY      -0.112400
     15 H2          -5.0360     0.5660    -1.3140 h1         1 GWY       0.044700
     16 H3          -2.0280     1.2830     1.1760 h1         1 GWY       0.053700
     17 H4          -2.1920     1.3640    -0.6050 h1         1 GWY       0.053700
     18 H5           4.3300    -2.1100     0.4810 h5         1 GWY       0.051100
     19 H6           3.4400     1.2790    -1.7400 h4         1 GWY       0.034100
     20 H7           0.8150    -0.9360     2.7750 h1         1 GWY       0.046367
     21 H8          -0.9150    -0.6150     2.6230 h1         1 GWY       0.046367
     22 H9          -0.2830    -2.2520     2.2880 h1         1 GWY       0.046367
     23 H10         -0.7460    -0.8100    -1.1840 h1         1 GWY       0.054200
     24 H11         -1.0200    -2.2830    -0.2590 h1         1 GWY       0.054200
     25 H12         -2.6610    -1.1490     1.1570 hc         1 GWY       0.061700
     26 H13         -3.8420    -1.9940    -0.8380 hc         1 GWY       0.056200
     27 H14         -3.1390    -0.7480    -1.8720 hc         1 GWY       0.056200
     28 Cl           0.6210     1.6730    -1.1500 cl         1 GWY      -0.179000
     29 H1          -5.4180    -0.4350     0.1130 h1         1 GWY       0.044700
@<TRIPOS>BOND
     1     1     4 ar  
     2     1     5 ar  
     3     2    13 1   
     4     2    14 1   
     5     2    15 1   
     6     2    29 1   
     7     3    12 1   
     8     3    13 1   
     9     3    16 1   
    10     3    17 1   
    11     4     7 ar  
    12     4     9 1   
    13     5     8 ar  
    14     5    18 1   
    15     6     7 ar  
    16     6     8 ar  
    17     6    19 1   
    18     7    28 1   
    19     9    10 1   
    20     9    11 1   
    21    10    20 1   
    22    10    21 1   
    23    10    22 1   
    24    11    12 1   
    25    11    23 1   
    26    11    24 1   
    27    12    14 1   
    28    12    25 1   
    29    14    26 1   
    30    14    27 1   
@<TRIPOS>SUBSTRUCTURE
     1 GWY         1 TEMP              0 ****  ****    0 ROOT
