@<TRIPOS>MOLECULE
GWZ
  113   115     1     0     0
SMALL
No Charge or Current Charge


@<TRIPOS>ATOM
      1 C5          -9.0560    -2.1300     1.2190 c6         1 GWZ       0.127300
      2 C6          -9.4280    -3.6430     1.2320 c6         1 GWZ       0.154100
      3 C7          -7.4630    -0.4140     0.3630 c3         1 GWZ       0.089800
      4 C8          -6.2820     0.0070    -0.5590 c          1 GWZ       0.600100
      5 C15         -2.7540     4.7440    -1.7250 ca         1 GWZ      -0.107000
      6 C17         -2.6680     6.8260    -0.4660 ca         1 GWZ      -0.113000
      7 C20         -2.6500    -0.6670    -0.1190 c          1 GWZ       0.596100
      8 C24         -0.1610    -2.7580    -1.3640 c3         1 GWZ      -0.082400
      9 C26         -1.1550    -5.0190    -2.0140 c3         1 GWZ      -0.091600
     10 C28          0.9430    -0.5030    -0.8740 c          1 GWZ       0.591100
     11 O1          -8.3070    -4.4320     1.6990 os         1 GWZ      -0.452000
     12 C2          -7.1230    -4.2550     0.8830 c6         1 GWZ       0.154100
     13 C3          -6.7000    -2.7560     0.8590 c6         1 GWZ       0.127300
     14 N4          -7.8230    -1.8690     0.4140 n3         1 GWZ      -0.694600
     15 O9          -6.4290     0.3150    -1.7360 o          1 GWZ      -0.582100
     16 N10         -5.0410     0.0010     0.0450 ns         1 GWZ      -0.506900
     17 C11         -3.7570     0.3000    -0.6270 c3         1 GWZ       0.034700
     18 C12         -3.3330     1.7770    -0.4040 c3         1 GWZ      -0.096400
     19 C14         -3.7270     4.2390    -0.8390 ca         1 GWZ      -0.080300
     20 C16         -2.2260     6.0330    -1.5390 ca         1 GWZ      -0.112000
     21 C18         -3.6370     6.3280     0.4210 ca         1 GWZ      -0.112000
     22 C19         -4.1650     5.0380     0.2350 ca         1 GWZ      -0.107000
     23 N22         -1.5130    -0.7010    -0.8970 ns         1 GWZ      -0.481900
     24 C23         -0.2670    -1.4280    -0.5680 c3         1 GWZ       0.028700
     25 C27         -1.0370    -4.3800     0.4430 c3         1 GWZ      -0.091600
     26 O29          0.8990     0.3950    -1.7070 o          1 GWZ      -0.609100
     27 N30          2.0750    -0.7550    -0.1290 ns         1 GWZ      -0.482900
     28 C31          3.2830     0.1030    -0.1110 c3         1 GWZ       0.026700
     29 C32          3.2000     1.1540     1.0290 c3         1 GWZ      -0.044100
     30 C33          1.9120     1.9740     1.0180 ca         1 GWZ      -0.087300
     31 C34          1.7850     3.0860     0.1620 ca         1 GWZ      -0.101500
     32 C35          0.5970     3.8370     0.1470 ca         1 GWZ      -0.108500
     33 C36         -0.4710     3.4830     0.9870 ca         1 GWZ      -0.109000
     34 C37         -0.3530     2.3730     1.8400 ca         1 GWZ      -0.108500
     35 C38          0.8350     1.6220     1.8570 ca         1 GWZ      -0.101500
     36 C39          4.5660    -0.7660     0.0130 c          1 GWZ       0.605100
     37 O40          4.5390    -1.9520     0.3200 o          1 GWZ      -0.610100
     38 N41          5.7450    -0.1040    -0.2600 ns         1 GWZ      -0.483900
     39 C42          7.0910    -0.6950    -0.1960 c3         1 GWZ       0.095700
     40 C43          7.7010    -0.7780    -1.6250 c3         1 GWZ      -0.091400
     41 C44          6.9260    -1.6610    -2.6460 c3         1 GWZ      -0.056700
     42 C46          7.5100    -1.4980    -4.0680 c3         1 GWZ      -0.091100
     43 C45          6.8930    -3.1550    -2.2420 c3         1 GWZ      -0.091100
     44 C47          8.0240     0.0840     0.7970 c3         1 GWZ       0.125300
     45 O48          8.0640     1.4820     0.4210 oh         1 GWZ      -0.676000
     46 C51          7.6630    -0.0140     2.3310 c3         1 GWZ       0.195000
     47 C59          8.8030     0.5790     3.1970 c3         1 GWZ      -0.108600
     48 O60          6.5060     0.7860     2.5650 oh         1 GWZ      -0.652000
     49 H1          -9.9050    -1.5620     0.8110 h1         1 GWZ       0.042700
     50 H2          -8.9130    -1.7950     2.2570 h1         1 GWZ       0.042700
     51 H3         -10.2880    -3.8120     1.8950 h1         1 GWZ       0.053450
     52 H4          -9.7060    -3.9700     0.2200 h1         1 GWZ       0.053450
     53 H5          -7.2260    -0.0560     1.3740 h1         1 GWZ       0.047700
     54 H6          -8.3330     0.1650     0.0260 h1         1 GWZ       0.047700
     55 H7          -4.4050     2.6170    -2.0940 hc         1 GWZ       0.056200
     56 H8          -5.2690     2.7500    -0.5700 hc         1 GWZ       0.056200
     57 H10         -2.2580     7.8230    -0.3210 ha         1 GWZ       0.112000
     58 H11         -0.2430    -2.5240    -2.4330 hc         1 GWZ       0.054700
     59 H12          0.8420    -3.1780    -1.2220 hc         1 GWZ       0.054700
     60 H13         -0.1760    -5.5130    -1.9930 hc         1 GWZ       0.035367
     61 H14         -1.9220    -5.7670    -1.7830 hc         1 GWZ       0.035367
     62 H15         -1.3350    -4.6570    -3.0340 hc         1 GWZ       0.035367
     63 H16         -6.3080    -4.8680     1.2930 h1         1 GWZ       0.053450
     64 H17         -7.3320    -4.6020    -0.1390 h1         1 GWZ       0.053450
     65 H18         -6.3630    -2.4700     1.8660 h1         1 GWZ       0.042700
     66 H19         -5.8360    -2.6540     0.1870 h1         1 GWZ       0.042700
     67 H21         -5.0090    -0.3080     1.0110 hn         1 GWZ       0.328500
     68 H22         -3.8620     0.1160    -1.7050 h1         1 GWZ       0.092700
     69 H23         -2.3310     1.9260    -0.8260 hc         1 GWZ       0.059700
     70 H24         -3.2460     1.9660     0.6730 hc         1 GWZ       0.059700
     71 H25         -1.4740     6.4160    -2.2250 ha         1 GWZ       0.112000
     72 H26         -3.9780     6.9390     1.2530 ha         1 GWZ       0.112000
     73 H27         -4.9090     4.6570     0.9310 ha         1 GWZ       0.112500
     74 H28         -1.4960    -0.0880    -1.7060 hn         1 GWZ       0.331500
     75 H29         -0.2400    -1.6330     0.5090 h1         1 GWZ       0.092700
     76 H31         -1.1670    -3.5810     1.1810 hc         1 GWZ       0.035367
     77 H32         -1.7850    -5.1530     0.6600 hc         1 GWZ       0.035367
     78 H33         -0.0430    -4.8200     0.5840 hc         1 GWZ       0.035367
     79 H34          2.0470    -1.5510     0.4990 hn         1 GWZ       0.332500
     80 H35          3.3550     0.6320    -1.0710 h1         1 GWZ       0.091700
     81 H36          3.3020     0.6370     1.9920 hc         1 GWZ       0.061700
     82 H37          4.0630     1.8270     0.9620 hc         1 GWZ       0.061700
     83 H38          2.6060     3.3660    -0.4940 ha         1 GWZ       0.108000
     84 H39          0.5030     4.6940    -0.5170 ha         1 GWZ       0.114500
     85 H40         -1.3890     4.0660     0.9760 ha         1 GWZ       0.120000
     86 H41         -1.1810     2.0950     2.4890 ha         1 GWZ       0.114500
     87 H42          0.9160     0.7630     2.5200 ha         1 GWZ       0.108000
     88 H43          5.6750     0.8770    -0.5010 hn         1 GWZ       0.317500
     89 H44          7.0120    -1.7240     0.1740 h1         1 GWZ       0.092700
     90 H45          7.7760     0.2380    -2.0320 hc         1 GWZ       0.039700
     91 H46          8.7280    -1.1550    -1.5490 hc         1 GWZ       0.039700
     92 H47          5.8880    -1.3080    -2.6880 hc         1 GWZ       0.053700
     93 H48          8.5520    -1.8360    -4.1030 hc         1 GWZ       0.035367
     94 H49          6.9340    -2.0840    -4.7940 hc         1 GWZ       0.035367
     95 H50          7.4780    -0.4480    -4.3830 hc         1 GWZ       0.035367
     96 H51          7.9100    -3.5550    -2.1430 hc         1 GWZ       0.035367
     97 H52          6.3720    -3.3010    -1.2900 hc         1 GWZ       0.035367
     98 H53          6.3660    -3.7470    -2.9990 hc         1 GWZ       0.035367
     99 H54          9.0280    -0.3490     0.6900 h1         1 GWZ       0.039700
    100 H55          8.6050     1.5490    -0.3970 ho         1 GWZ       0.449000
    101 H59          9.0030     1.6250     2.9350 hc         1 GWZ       0.047367
    102 H60          8.5440     0.5460     4.2620 hc         1 GWZ       0.047367
    103 H61          9.7310     0.0120     3.0560 hc         1 GWZ       0.047367
    104 H62          6.6100     1.5150     1.9120 ho         1 GWZ       0.450000
    105 O21         -2.7630    -1.3370     0.9000 o          1 GWZ      -0.615100
    106 C13         -4.2750     2.8310    -1.0250 c3         1 GWZ      -0.027100
    107 C25         -1.2060    -3.8520    -1.0020 c3         1 GWZ      -0.057700
    108 C58          7.3620    -1.4580     2.8030 c3         1 GWZ      -0.108600
    109 H9          -2.4020     4.1330    -2.5530 ha         1 GWZ       0.112500
    110 H30         -2.2060    -3.4090    -1.0800 hc         1 GWZ       0.053700
    111 H56          8.1920    -2.1290     2.5530 hc         1 GWZ       0.047367
    112 H57          7.2150    -1.4900     3.8890 hc         1 GWZ       0.047367
    113 H58          6.4490    -1.8500     2.3420 hc         1 GWZ       0.047367
@<TRIPOS>BOND
     1     1     2 1   
     2     1    14 1   
     3     1    49 1   
     4     1    50 1   
     5     2    11 1   
     6     2    51 1   
     7     2    52 1   
     8     3     4 1   
     9     3    14 1   
    10     3    53 1   
    11     3    54 1   
    12     4    15 2   
    13     4    16 1   
    14     5    19 ar  
    15     5    20 ar  
    16     5   109 1   
    17     6    20 ar  
    18     6    21 ar  
    19     6    57 1   
    20     7    17 1   
    21     7    23 1   
    22     7   105 2   
    23     8    24 1   
    24     8    58 1   
    25     8    59 1   
    26     8   107 1   
    27     9    60 1   
    28     9    61 1   
    29     9    62 1   
    30     9   107 1   
    31    10    24 1   
    32    10    26 2   
    33    10    27 1   
    34    11    12 1   
    35    12    13 1   
    36    12    63 1   
    37    12    64 1   
    38    13    14 1   
    39    13    65 1   
    40    13    66 1   
    41    16    17 1   
    42    16    67 1   
    43    17    18 1   
    44    17    68 1   
    45    18    69 1   
    46    18    70 1   
    47    18   106 1   
    48    19    22 ar  
    49    19   106 1   
    50    20    71 1   
    51    21    22 ar  
    52    21    72 1   
    53    22    73 1   
    54    23    24 1   
    55    23    74 1   
    56    24    75 1   
    57    25    76 1   
    58    25    77 1   
    59    25    78 1   
    60    25   107 1   
    61    27    28 1   
    62    27    79 1   
    63    28    29 1   
    64    28    36 1   
    65    28    80 1   
    66    29    30 1   
    67    29    81 1   
    68    29    82 1   
    69    30    31 ar  
    70    30    35 ar  
    71    31    32 ar  
    72    31    83 1   
    73    32    33 ar  
    74    32    84 1   
    75    33    34 ar  
    76    33    85 1   
    77    34    35 ar  
    78    34    86 1   
    79    35    87 1   
    80    36    37 2   
    81    36    38 1   
    82    38    39 1   
    83    38    88 1   
    84    39    40 1   
    85    39    44 1   
    86    39    89 1   
    87    40    41 1   
    88    40    90 1   
    89    40    91 1   
    90    41    42 1   
    91    41    43 1   
    92    41    92 1   
    93    42    93 1   
    94    42    94 1   
    95    42    95 1   
    96    43    96 1   
    97    43    97 1   
    98    43    98 1   
    99    44    45 1   
   100    44    46 1   
   101    44    99 1   
   102    45   100 1   
   103    46    47 1   
   104    46    48 1   
   105    46   108 1   
   106    47   101 1   
   107    47   102 1   
   108    47   103 1   
   109    48   104 1   
   110    55   106 1   
   111    56   106 1   
   112   107   110 1   
   113   108   111 1   
   114   108   112 1   
   115   108   113 1   
@<TRIPOS>SUBSTRUCTURE
     1 GWZ         1 TEMP              0 ****  ****    0 ROOT
