@<TRIPOS>MOLECULE
GWZ
  113   115     1     0     0
SMALL
abcg2


@<TRIPOS>ATOM
      1 C5          -9.3190    -1.2660     0.9210 c6         1 GWZ       0.127300
      2 C6         -10.4750    -1.9920     0.2610 c6         1 GWZ       0.154100
      3 C7          -6.9880    -0.7760     0.7330 c3         1 GWZ       0.089800
      4 C8          -5.8180    -0.6430    -0.2320 c          1 GWZ       0.600100
      5 C15         -2.6470     4.2650    -1.7160 ca         1 GWZ      -0.107000
      6 C17         -2.6920     6.3290    -0.4790 ca         1 GWZ      -0.113000
      7 C20         -2.2750    -0.8960     0.3580 c          1 GWZ       0.596100
      8 C24          0.3110    -3.1110    -0.6710 c3         1 GWZ      -0.082400
      9 C26         -0.3540    -5.4880    -1.0540 c3         1 GWZ      -0.091600
     10 C28          1.0720    -0.7320    -0.4840 c          1 GWZ       0.591100
     11 O1         -10.2180    -3.3750     0.1430 os         1 GWZ      -0.452000
     12 C2          -9.0330    -3.6050    -0.5860 c6         1 GWZ       0.154100
     13 C3          -7.8410    -2.9140     0.0480 c6         1 GWZ       0.127300
     14 N4          -8.0990    -1.4890     0.1660 n3         1 GWZ      -0.694600
     15 O9          -5.9490    -0.7000    -1.4440 o          1 GWZ      -0.582100
     16 N10         -4.6450    -0.4110     0.3820 ns         1 GWZ      -0.506900
     17 C11         -3.4100    -0.1180    -0.2990 c3         1 GWZ       0.034700
     18 C12         -3.0570     1.3730    -0.2330 c3         1 GWZ      -0.096400
     19 C14         -3.5990     3.7090    -0.8660 ca         1 GWZ      -0.080300
     20 C16         -2.1950     5.5640    -1.5270 ca         1 GWZ      -0.112000
     21 C18         -3.6470     5.7880     0.3710 ca         1 GWZ      -0.112000
     22 C19         -4.0960     4.4880     0.1770 ca         1 GWZ      -0.107000
     23 N22         -1.2880    -1.2460    -0.4810 ns         1 GWZ      -0.481900
     24 C23         -0.0000    -1.7380    -0.0630 c3         1 GWZ       0.028700
     25 C27         -0.6040    -4.5030     1.2380 c3         1 GWZ      -0.091600
     26 O29          0.9260    -0.0140    -1.4580 o          1 GWZ      -0.609100
     27 N30          2.1750    -0.7570     0.2800 ns         1 GWZ      -0.482900
     28 C31          3.2870     0.1390     0.1270 c3         1 GWZ       0.026700
     29 C32          3.2910     1.2020     1.2470 c3         1 GWZ      -0.044100
     30 C33          2.0110     1.9850     1.2500 ca         1 GWZ      -0.087300
     31 C34          1.8620     3.0980     0.4260 ca         1 GWZ      -0.101500
     32 C35          0.6580     3.7830     0.3660 ca         1 GWZ      -0.108500
     33 C36         -0.4220     3.3640     1.1320 ca         1 GWZ      -0.109000
     34 C37         -0.2820     2.2610     1.9640 ca         1 GWZ      -0.108500
     35 C38          0.9260     1.5800     2.0230 ca         1 GWZ      -0.101500
     36 C39          4.5960    -0.6550     0.1320 c          1 GWZ       0.605100
     37 O40          4.6540    -1.7790     0.6050 o          1 GWZ      -0.610100
     38 N41          5.6250     0.0020    -0.4110 ns         1 GWZ      -0.483900
     39 C42          6.9940    -0.4670    -0.4690 c3         1 GWZ       0.095700
     40 C43          7.4940    -0.4110    -1.9150 c3         1 GWZ      -0.091400
     41 C44          6.6900    -1.2470    -2.9120 c3         1 GWZ      -0.056700
     42 C46          7.2120    -1.0100    -4.3260 c3         1 GWZ      -0.091100
     43 C45          6.7200    -2.7340    -2.5730 c3         1 GWZ      -0.091100
     44 C47          7.9110     0.3530     0.4540 c3         1 GWZ       0.125300
     45 O48          7.7360     1.7330     0.1910 oh         1 GWZ      -0.676000
     46 C51          7.7310     0.1300     1.9720 c3         1 GWZ       0.195000
     47 C59          8.8320     0.8940     2.7160 c3         1 GWZ      -0.108600
     48 O60          6.4600     0.5710     2.4140 oh         1 GWZ      -0.652000
     49 H1          -9.5400    -0.1970     0.9460 h1         1 GWZ       0.042700
     50 H2          -9.2230    -1.6030     1.9680 h1         1 GWZ       0.042700
     51 H3         -11.3800    -1.8770     0.8590 h1         1 GWZ       0.053450
     52 H4         -10.6630    -1.5510    -0.7280 h1         1 GWZ       0.053450
     53 H5          -6.6410    -1.2110     1.6850 h1         1 GWZ       0.047700
     54 H6          -7.3100     0.2440     0.9690 h1         1 GWZ       0.047700
     55 H7          -4.0130     1.9820    -2.0670 hc         1 GWZ       0.056200
     56 H8          -5.0350     2.1430    -0.6470 hc         1 GWZ       0.056200
     57 H10         -2.3400     7.3420    -0.3300 ha         1 GWZ       0.112000
     58 H11          0.3160    -3.0130    -1.7620 hc         1 GWZ       0.054700
     59 H12          1.3290    -3.4000    -0.3860 hc         1 GWZ       0.054700
     60 H13          0.6530    -5.8540    -0.8390 hc         1 GWZ       0.035367
     61 H14         -1.0540    -6.2850    -0.7990 hc         1 GWZ       0.035367
     62 H15         -0.4240    -5.3140    -2.1290 hc         1 GWZ       0.035367
     63 H16         -8.8700    -4.6830    -0.6120 h1         1 GWZ       0.053450
     64 H17         -9.1460    -3.2550    -1.6220 h1         1 GWZ       0.053450
     65 H18         -7.6300    -3.3680     1.0320 h1         1 GWZ       0.042700
     66 H19         -6.9680    -3.0850    -0.5840 h1         1 GWZ       0.042700
     67 H21         -4.6200    -0.3960     1.3910 hn         1 GWZ       0.328500
     68 H22         -3.5220    -0.4220    -1.3420 h1         1 GWZ       0.092700
     69 H23         -2.0400     1.5190    -0.6090 hc         1 GWZ       0.059700
     70 H24         -3.0380     1.6830     0.8160 hc         1 GWZ       0.059700
     71 H25         -1.4540     5.9800    -2.1980 ha         1 GWZ       0.112000
     72 H26         -4.0460     6.3790     1.1860 ha         1 GWZ       0.112000
     73 H27         -4.8380     4.0700     0.8480 ha         1 GWZ       0.112500
     74 H28         -1.3740    -0.9830    -1.4510 hn         1 GWZ       0.331500
     75 H29         -0.0130    -1.8110     1.0250 h1         1 GWZ       0.092700
     76 H31         -0.9140    -3.6440     1.8340 hc         1 GWZ       0.035367
     77 H32         -1.2660    -5.3300     1.4980 hc         1 GWZ       0.035367
     78 H33          0.4080    -4.7790     1.5460 hc         1 GWZ       0.035367
     79 H34          2.2090    -1.3910     1.0640 hn         1 GWZ       0.332500
     80 H35          3.1740     0.6440    -0.8340 h1         1 GWZ       0.091700
     81 H36          3.4430     0.7050     2.2090 hc         1 GWZ       0.061700
     82 H37          4.1410     1.8710     1.1030 hc         1 GWZ       0.061700
     83 H38          2.6970     3.4290    -0.1820 ha         1 GWZ       0.108000
     84 H39          0.5550     4.6420    -0.2850 ha         1 GWZ       0.114500
     85 H40         -1.3680     3.8860     1.0660 ha         1 GWZ       0.120000
     86 H41         -1.1190     1.9210     2.5610 ha         1 GWZ       0.114500
     87 H42          1.0230     0.7210     2.6760 ha         1 GWZ       0.108000
     88 H43          5.4610     0.9300    -0.7670 hn         1 GWZ       0.317500
     89 H44          7.0040    -1.5040    -0.1410 h1         1 GWZ       0.092700
     90 H45          7.5030     0.6300    -2.2560 hc         1 GWZ       0.039700
     91 H46          8.5370    -0.7470    -1.9290 hc         1 GWZ       0.039700
     92 H47          5.6490    -0.9090    -2.8800 hc         1 GWZ       0.053700
     93 H48          8.2530    -1.3280    -4.4200 hc         1 GWZ       0.035367
     94 H49          6.6300    -1.5680    -5.0620 hc         1 GWZ       0.035367
     95 H50          7.1630     0.0460    -4.5980 hc         1 GWZ       0.035367
     96 H51          7.7470    -3.1070    -2.5530 hc         1 GWZ       0.035367
     97 H52          6.2690    -2.9480    -1.6030 hc         1 GWZ       0.035367
     98 H53          6.1730    -3.3150    -3.3180 hc         1 GWZ       0.035367
     99 H54          8.9390     0.0420     0.2250 h1         1 GWZ       0.039700
    100 H55          8.3960     2.0210    -0.4430 ho         1 GWZ       0.449000
    101 H59          8.7760     1.9670     2.5330 hc         1 GWZ       0.047367
    102 H60          8.7410     0.7300     3.7910 hc         1 GWZ       0.047367
    103 H61          9.8240     0.5550     2.4110 hc         1 GWZ       0.047367
    104 H62          6.3810     1.5100     2.2130 ho         1 GWZ       0.450000
    105 O21         -2.2730    -1.1190     1.5590 o          1 GWZ      -0.615100
    106 C13         -4.0140     2.2720    -1.0130 c3         1 GWZ      -0.027100
    107 C25         -0.6570    -4.2200    -0.2600 c3         1 GWZ      -0.057700
    108 C58          7.8290    -1.3490     2.3210 c3         1 GWZ      -0.108600
    109 H9          -2.2470     3.6720    -2.5310 ha         1 GWZ       0.112500
    110 H30         -1.6730    -3.9000    -0.5140 hc         1 GWZ       0.053700
    111 H56          8.7420    -1.7840     1.9110 hc         1 GWZ       0.047367
    112 H57          7.8610    -1.4820     3.4040 hc         1 GWZ       0.047367
    113 H58          6.9800    -1.9170     1.9400 hc         1 GWZ       0.047367
@<TRIPOS>BOND
     1     1     2 1   
     2     1    14 1   
     3     1    49 1   
     4     1    50 1   
     5     2    11 1   
     6     2    51 1   
     7     2    52 1   
     8     3     4 1   
     9     3    14 1   
    10     3    53 1   
    11     3    54 1   
    12     4    15 2   
    13     4    16 1   
    14     5    19 ar  
    15     5    20 ar  
    16     5   109 1   
    17     6    20 ar  
    18     6    21 ar  
    19     6    57 1   
    20     7    17 1   
    21     7    23 1   
    22     7   105 2   
    23     8    24 1   
    24     8    58 1   
    25     8    59 1   
    26     8   107 1   
    27     9    60 1   
    28     9    61 1   
    29     9    62 1   
    30     9   107 1   
    31    10    24 1   
    32    10    26 2   
    33    10    27 1   
    34    11    12 1   
    35    12    13 1   
    36    12    63 1   
    37    12    64 1   
    38    13    14 1   
    39    13    65 1   
    40    13    66 1   
    41    16    17 1   
    42    16    67 1   
    43    17    18 1   
    44    17    68 1   
    45    18    69 1   
    46    18    70 1   
    47    18   106 1   
    48    19    22 ar  
    49    19   106 1   
    50    20    71 1   
    51    21    22 ar  
    52    21    72 1   
    53    22    73 1   
    54    23    24 1   
    55    23    74 1   
    56    24    75 1   
    57    25    76 1   
    58    25    77 1   
    59    25    78 1   
    60    25   107 1   
    61    27    28 1   
    62    27    79 1   
    63    28    29 1   
    64    28    36 1   
    65    28    80 1   
    66    29    30 1   
    67    29    81 1   
    68    29    82 1   
    69    30    31 ar  
    70    30    35 ar  
    71    31    32 ar  
    72    31    83 1   
    73    32    33 ar  
    74    32    84 1   
    75    33    34 ar  
    76    33    85 1   
    77    34    35 ar  
    78    34    86 1   
    79    35    87 1   
    80    36    37 2   
    81    36    38 1   
    82    38    39 1   
    83    38    88 1   
    84    39    40 1   
    85    39    44 1   
    86    39    89 1   
    87    40    41 1   
    88    40    90 1   
    89    40    91 1   
    90    41    42 1   
    91    41    43 1   
    92    41    92 1   
    93    42    93 1   
    94    42    94 1   
    95    42    95 1   
    96    43    96 1   
    97    43    97 1   
    98    43    98 1   
    99    44    45 1   
   100    44    46 1   
   101    44    99 1   
   102    45   100 1   
   103    46    47 1   
   104    46    48 1   
   105    46   108 1   
   106    47   101 1   
   107    47   102 1   
   108    47   103 1   
   109    48   104 1   
   110    55   106 1   
   111    56   106 1   
   112   107   110 1   
   113   108   111 1   
   114   108   112 1   
   115   108   113 1   
@<TRIPOS>SUBSTRUCTURE
     1 GWZ         1 TEMP              0 ****  ****    0 ROOT
