@<TRIPOS>MOLECULE
GX0
   43    46     1     0     0
SMALL
abcg2


@<TRIPOS>ATOM
      1 C7         162.0020   177.8950   156.0830 c3         1 GX0       0.128900
      2 N2         165.3140   177.5890   154.6450 nc         1 GX0      -0.544100
      3 C          165.7300   174.5130   155.5940 c5         1 GX0       0.157300
      4 N          164.8050   174.8050   154.5100 n3         1 GX0      -0.693600
      5 CL         161.6700   178.3280   162.0770 cl         1 GX0      -0.198000
      6 C1         164.3520   173.5020   154.0500 c5         1 GX0       0.157300
      7 N1         163.3380   178.0540   155.5560 na         1 GX0      -0.190600
      8 C2         166.5360   173.3160   155.0810 c5         1 GX0      -0.077900
      9 C3         165.6370   172.6810   153.9980 c5         1 GX0      -0.077900
     10 C4         163.7250   175.6810   154.8710 c3         1 GX0       0.161500
     11 C5         164.1630   177.1050   155.0190 cd         1 GX0       0.415800
     12 C6         164.0260   179.2420   155.5270 ca         1 GX0      -0.075200
     13 C8         165.2650   178.9290   154.9510 ca         1 GX0       0.064400
     14 C9         161.9450   178.0150   157.5860 ca         1 GX0      -0.112300
     15 C10        163.6880   180.5270   155.9320 ca         1 GX0      -0.112000
     16 C11        166.2170   179.9300   154.7680 ca         1 GX0      -0.048000
     17 C12        164.6470   181.5090   155.7400 ca         1 GX0      -0.095000
     18 C13        165.8930   181.2150   155.1690 ca         1 GX0      -0.136000
     19 C14        160.9120   178.7250   158.1840 ca         1 GX0      -0.086500
     20 C15        162.8950   177.4010   158.3970 ca         1 GX0      -0.086500
     21 C16        160.8160   178.8240   159.5650 ca         1 GX0      -0.102000
     22 C17        162.8170   177.4940   159.7780 ca         1 GX0      -0.102000
     23 C18        161.7740   178.2060   160.3510 ca         1 GX0       0.126000
     24 H1         161.3550   178.6460   155.6250 h1         1 GX0       0.065200
     25 H2         161.6140   176.9270   155.7660 h1         1 GX0       0.065200
     26 H4         165.1860   174.2360   156.5130 h1         1 GX0       0.037700
     27 H6         163.8510   173.5830   153.0830 h1         1 GX0       0.037700
     28 H7         163.6370   173.0470   154.7560 h1         1 GX0       0.037700
     29 H8         166.7620   172.6230   155.8900 hc         1 GX0       0.048450
     30 H9         167.4880   173.6370   154.6570 hc         1 GX0       0.048450
     31 H10        165.4450   171.6240   154.1790 hc         1 GX0       0.048450
     32 H11        166.1020   172.7610   153.0150 hc         1 GX0       0.048450
     33 H12        162.9590   175.6430   154.0890 h1         1 GX0       0.040700
     34 H13        163.2250   175.3510   155.7990 h1         1 GX0       0.040700
     35 H14        162.7290   180.7590   156.3760 ha         1 GX0       0.117000
     36 H15        167.1800   179.7070   154.3250 ha         1 GX0       0.128000
     37 H16        164.4290   182.5260   156.0400 ha         1 GX0       0.111000
     38 H17        166.6130   182.0120   155.0380 ha         1 GX0       0.113000
     39 H18        160.1680   179.2180   157.5700 ha         1 GX0       0.121000
     40 H19        163.7130   176.8410   157.9600 ha         1 GX0       0.121000
     41 H20        160.0080   179.3830   160.0170 ha         1 GX0       0.132500
     42 H21        163.5620   177.0140   160.3980 ha         1 GX0       0.132500
     43 H3         166.3500   175.3780   155.8290 h1         1 GX0       0.037700
@<TRIPOS>BOND
     1     1     7 1   
     2     1    14 1   
     3     1    24 1   
     4     1    25 1   
     5     2    11 2   
     6     2    13 1   
     7     3     4 1   
     8     3     8 1   
     9     3    26 1   
    10     3    43 1   
    11     4     6 1   
    12     4    10 1   
    13     5    23 1   
    14     6     9 1   
    15     6    27 1   
    16     6    28 1   
    17     7    11 1   
    18     7    12 1   
    19     8     9 1   
    20     8    29 1   
    21     8    30 1   
    22     9    31 1   
    23     9    32 1   
    24    10    11 1   
    25    10    33 1   
    26    10    34 1   
    27    12    13 ar  
    28    12    15 ar  
    29    13    16 ar  
    30    14    19 ar  
    31    14    20 ar  
    32    15    17 ar  
    33    15    35 1   
    34    16    18 ar  
    35    16    36 1   
    36    17    18 ar  
    37    17    37 1   
    38    18    38 1   
    39    19    21 ar  
    40    19    39 1   
    41    20    22 ar  
    42    20    40 1   
    43    21    23 ar  
    44    21    41 1   
    45    22    23 ar  
    46    22    42 1   
@<TRIPOS>SUBSTRUCTURE
     1 GX0         1 TEMP              0 ****  ****    0 ROOT
