@<TRIPOS>MOLECULE
GX0
   43    46     1     0     0
SMALL
No Charge or Current Charge


@<TRIPOS>ATOM
      1 C7         162.2240   178.4780   156.0320 c3         1 GX0       0.128900
      2 N2         165.2200   178.0430   153.8310 nc         1 GX0      -0.544100
      3 C          164.5860   175.1800   156.3800 c5         1 GX0       0.157300
      4 N          164.4290   175.0880   154.9150 n3         1 GX0      -0.693600
      5 Cl         162.8460   175.2310   161.1600 cl         1 GX0      -0.198000
      6 C1         163.9320   173.7120   154.7250 c5         1 GX0       0.157300
      7 N1         163.4710   178.5630   155.2490 na         1 GX0      -0.190600
      8 C2         165.4100   173.9030   156.6780 c5         1 GX0      -0.077900
      9 C3         164.9300   172.8910   155.5870 c5         1 GX0      -0.077900
     10 C4         163.6020   176.1580   154.2820 c3         1 GX0       0.161500
     11 C5         164.1090   177.5890   154.4560 cd         1 GX0       0.415800
     12 C6         164.2660   179.6720   155.1170 ca         1 GX0      -0.075200
     13 C8         165.2960   179.3530   154.2730 ca         1 GX0       0.064400
     14 C9         162.3730   177.6830   157.3250 ca         1 GX0      -0.112300
     15 C10        164.1420   180.9420   155.7040 ca         1 GX0      -0.112000
     16 C11        166.2750   180.3050   153.9490 ca         1 GX0      -0.048000
     17 C12        165.1180   181.9110   155.3920 ca         1 GX0      -0.095000
     18 C13        166.1800   181.5940   154.5160 ca         1 GX0      -0.136000
     19 C14        161.4260   176.6930   157.6570 ca         1 GX0      -0.086500
     20 C15        163.4570   177.9240   158.1950 ca         1 GX0      -0.086500
     21 C16        161.5720   175.9410   158.8370 ca         1 GX0      -0.102000
     22 C17        163.6010   177.1710   159.3730 ca         1 GX0      -0.102000
     23 C18        162.6600   176.1780   159.6910 ca         1 GX0       0.126000
     24 H1         161.8720   179.4870   156.2730 h1         1 GX0       0.065200
     25 H2         161.4550   178.0160   155.4000 h1         1 GX0       0.065200
     26 H4         163.6130   175.1460   156.8880 h1         1 GX0       0.037700
     27 H6         163.9430   173.4010   153.6710 h1         1 GX0       0.037700
     28 H7         162.9050   173.6050   155.1030 h1         1 GX0       0.037700
     29 H8         165.2380   173.5380   157.6960 hc         1 GX0       0.048450
     30 H9         166.4840   174.1000   156.5800 hc         1 GX0       0.048450
     31 H10        164.4530   172.0050   156.0200 hc         1 GX0       0.048450
     32 H11        165.7750   172.5410   154.9840 hc         1 GX0       0.048450
     33 H12        163.5330   175.9660   153.2030 h1         1 GX0       0.040700
     34 H13        162.5780   176.1030   154.6710 h1         1 GX0       0.040700
     35 H14        163.3260   181.1820   156.3810 ha         1 GX0       0.117000
     36 H15        167.0920   180.0510   153.2780 ha         1 GX0       0.128000
     37 H16        165.0520   182.9060   155.8280 ha         1 GX0       0.111000
     38 H17        166.9300   182.3450   154.2790 ha         1 GX0       0.113000
     39 H18        160.5820   176.4970   156.9990 ha         1 GX0       0.121000
     40 H19        164.1930   178.6900   157.9570 ha         1 GX0       0.121000
     41 H20        160.8440   175.1730   159.0870 ha         1 GX0       0.132500
     42 H21        164.4410   177.3540   160.0380 ha         1 GX0       0.132500
     43 H3         165.1110   176.0920   156.6960 h1         1 GX0       0.037700
@<TRIPOS>BOND
     1     1     7 1   
     2     1    14 1   
     3     1    24 1   
     4     1    25 1   
     5     2    11 2   
     6     2    13 1   
     7     3     4 1   
     8     3     8 1   
     9     3    26 1   
    10     3    43 1   
    11     4     6 1   
    12     4    10 1   
    13     5    23 1   
    14     6     9 1   
    15     6    27 1   
    16     6    28 1   
    17     7    11 1   
    18     7    12 1   
    19     8     9 1   
    20     8    29 1   
    21     8    30 1   
    22     9    31 1   
    23     9    32 1   
    24    10    11 1   
    25    10    33 1   
    26    10    34 1   
    27    12    13 ar  
    28    12    15 ar  
    29    13    16 ar  
    30    14    19 ar  
    31    14    20 ar  
    32    15    17 ar  
    33    15    35 1   
    34    16    18 ar  
    35    16    36 1   
    36    17    18 ar  
    37    17    37 1   
    38    18    38 1   
    39    19    21 ar  
    40    19    39 1   
    41    20    22 ar  
    42    20    40 1   
    43    21    23 ar  
    44    21    41 1   
    45    22    23 ar  
    46    22    42 1   
@<TRIPOS>SUBSTRUCTURE
     1 GX0         1 TEMP              0 ****  ****    0 ROOT
