@<TRIPOS>MOLECULE
GX3
   68    71     1     0     0
SMALL
No Charge or Current Charge


@<TRIPOS>ATOM
      1 N1          82.4770     3.3200   145.7490 nb         1 GX3      -0.265000
      2 C2          81.7420     2.2070   143.3360 ca         1 GX3       0.314900
      3 N3          80.2480     3.4010   146.3280 nu         1 GX3      -0.912100
      4 C4          81.2110     3.0650   145.3920 ca         1 GX3       0.424900
      5 C5          78.7860     3.2430   146.2040 c3         1 GX3       0.229100
      6 C6          82.3040     1.2780   141.1080 c          1 GX3       0.584200
      7 C8          84.1290     2.1030   142.6360 cc         1 GX3      -0.012200
      8 Cl1         83.5810     3.0760   138.7110 cl         1 GX3      -0.174000
      9 Cl2         85.8020    -0.5230   142.3070 cl         1 GX3      -0.174000
     10 C1          83.0950     2.4330   143.6030 ca         1 GX3      -0.309800
     11 O1          81.9730     0.7200   140.0690 o          1 GX3      -0.522000
     12 N2          80.7920     2.5260   144.2370 nb         1 GX3      -0.313000
     13 O2          87.7100    -1.0030   140.1270 os         1 GX3      -0.321100
     14 C3          83.4230     3.0010   144.8480 ca         1 GX3       0.209900
     15 O3          85.6770     2.0550   136.9160 os         1 GX3      -0.321100
     16 N4          81.3520     1.6250   142.0910 n          1 GX3      -0.362300
     17 O4          76.7800    -1.8650   136.1040 o          1 GX3      -0.609100
     18 N5          77.3850     1.1900   140.1130 n3         1 GX3      -0.719600
     19 N6          76.3480    -0.5780   137.9500 n          1 GX3      -0.413800
     20 C7          83.7360     1.6050   141.4060 cd         1 GX3      -0.174400
     21 C9          79.9100     1.3640   141.8130 c3         1 GX3       0.100000
     22 C10         84.7630     1.2240   140.4090 ca         1 GX3       0.057200
     23 C11         84.7510     1.8050   139.1170 ca         1 GX3       0.060500
     24 C12         85.7240     1.4490   138.1600 ca         1 GX3       0.189600
     25 C13         86.7210     0.5080   138.4860 ca         1 GX3      -0.280000
     26 C14         86.7500    -0.0710   139.7710 ca         1 GX3       0.189600
     27 C15         85.7780     0.2880   140.7300 ca         1 GX3       0.060500
     28 C16         86.6240     1.7670   135.8730 c3         1 GX3       0.148400
     29 C17         88.7410    -1.4420   139.2240 c3         1 GX3       0.148400
     30 C18         79.1740     2.6040   141.2620 c3         1 GX3      -0.090400
     31 C19         77.6750     2.3520   140.9900 c3         1 GX3       0.172800
     32 C20         77.9100     1.3360   138.7300 c6         1 GX3       0.144300
     33 C21         77.7060     0.0520   137.8840 c6         1 GX3       0.099000
     34 C22         75.6060    -0.3900   139.2400 c6         1 GX3       0.099000
     35 C23         75.9320     0.9050   140.0350 c6         1 GX3       0.144300
     36 C24         76.0260    -1.6090   137.0350 c          1 GX3       0.610300
     37 C25         74.7950    -2.4420   137.2520 ce         1 GX3      -0.294200
     38 C26         74.6000    -3.6620   136.6920 c2         1 GX3      -0.240000
     39 H1          80.6080     3.8090   147.1930 hn         1 GX3       0.514000
     40 H2          78.2800     3.6010   147.1110 h1         1 GX3       0.044033
     41 H3          78.4070     3.8170   145.3480 h1         1 GX3       0.044033
     42 H4          78.5230     2.1860   146.0560 h1         1 GX3       0.044033
     43 H5          85.1820     2.2850   142.8440 ha         1 GX3       0.195000
     44 H6          84.4560     3.2070   145.1270 h4         1 GX3       0.025100
     45 H8          79.4110     1.0250   142.7310 h1         1 GX3       0.079700
     46 H9          79.8080     0.5370   141.0990 h1         1 GX3       0.079700
     47 H10         87.4680     0.2330   137.7510 ha         1 GX3       0.126000
     48 H11         86.3950     2.3600   134.9780 h1         1 GX3       0.044533
     49 H12         87.6440     2.0160   136.1920 h1         1 GX3       0.044533
     50 H13         86.5890     0.7060   135.5950 h1         1 GX3       0.044533
     51 H14         89.3870    -2.1790   139.7170 h1         1 GX3       0.044533
     52 H15         88.3060    -1.9130   138.3340 h1         1 GX3       0.044533
     53 H16         89.3690    -0.5980   138.9080 h1         1 GX3       0.044533
     54 H17         79.6680     2.9430   140.3450 hc         1 GX3       0.052700
     55 H18         79.2610     3.4260   141.9810 hc         1 GX3       0.052700
     56 H19         77.2410     3.2650   140.5600 h1         1 GX3       0.031200
     57 H20         77.1890     2.1970   141.9630 h1         1 GX3       0.031200
     58 H21         78.9860     1.5610   138.7370 h1         1 GX3       0.041450
     59 H22         77.4110     2.1750   138.2240 h1         1 GX3       0.041450
     60 H23         78.4390    -0.6950   138.2180 h1         1 GX3       0.060950
     61 H24         77.9490     0.2910   136.8390 h1         1 GX3       0.060950
     62 H25         74.5250    -0.3730   139.0510 h1         1 GX3       0.060950
     63 H26         75.8150    -1.2550   139.8840 h1         1 GX3       0.060950
     64 H27         75.4130     1.7470   139.5530 h1         1 GX3       0.041450
     65 H28         75.5040     0.8070   141.0430 h1         1 GX3       0.041450
     66 H29         74.0520    -2.0660   137.9480 ha         1 GX3       0.177000
     67 H31         73.7050    -4.2520   136.8990 ha         1 GX3       0.174000
     68 H32         75.3260    -4.1100   136.0100 ha         1 GX3       0.174000
@<TRIPOS>BOND
     1     1     4 ar  
     2     1    14 ar  
     3     2    10 ar  
     4     2    12 ar  
     5     2    16 1   
     6     3     4 1   
     7     3     5 1   
     8     3    39 1   
     9     4    12 ar  
    10     5    40 1   
    11     5    41 1   
    12     5    42 1   
    13     6    11 2   
    14     6    16 1   
    15     6    20 1   
    16     7    10 1   
    17     7    20 2   
    18     7    43 1   
    19     8    23 1   
    20     9    27 1   
    21    10    14 ar  
    22    13    26 1   
    23    13    29 1   
    24    14    44 1   
    25    15    24 1   
    26    15    28 1   
    27    16    21 1   
    28    17    36 2   
    29    18    31 1   
    30    18    32 1   
    31    18    35 1   
    32    19    33 1   
    33    19    34 1   
    34    19    36 1   
    35    20    22 1   
    36    21    30 1   
    37    21    45 1   
    38    21    46 1   
    39    22    23 ar  
    40    22    27 ar  
    41    23    24 ar  
    42    24    25 ar  
    43    25    26 ar  
    44    25    47 1   
    45    26    27 ar  
    46    28    48 1   
    47    28    49 1   
    48    28    50 1   
    49    29    51 1   
    50    29    52 1   
    51    29    53 1   
    52    30    31 1   
    53    30    54 1   
    54    30    55 1   
    55    31    56 1   
    56    31    57 1   
    57    32    33 1   
    58    32    58 1   
    59    32    59 1   
    60    33    60 1   
    61    33    61 1   
    62    34    35 1   
    63    34    62 1   
    64    34    63 1   
    65    35    64 1   
    66    35    65 1   
    67    36    37 1   
    68    37    38 2   
    69    37    66 1   
    70    38    67 1   
    71    38    68 1   
@<TRIPOS>SUBSTRUCTURE
     1 GX3         1 TEMP              0 ****  ****    0 ROOT
