@<TRIPOS>MOLECULE
GX3
   68    71     1     0     0
SMALL
abcg2


@<TRIPOS>ATOM
      1 N1          82.3040     3.8150   145.4350 nb         1 GX3      -0.265000
      2 C2          81.7420     2.3520   143.1980 ca         1 GX3       0.314900
      3 N3          80.0890     3.6550   145.9680 nu         1 GX3      -0.912100
      4 C4          81.0710     3.3570   145.1150 ca         1 GX3       0.424900
      5 C5          78.7200     3.2420   145.7920 c3         1 GX3       0.229100
      6 C6          82.4130     1.2660   141.1390 c          1 GX3       0.584200
      7 C8          84.0730     2.4370   142.4960 cc         1 GX3      -0.012200
      8 CL1         83.7950     3.2080   138.7730 cl         1 GX3      -0.174000
      9 CL2         85.6320    -0.5190   142.2370 cl         1 GX3      -0.174000
     10 C1          83.0610     2.7760   143.4260 ca         1 GX3      -0.309800
     11 O1          82.1100     0.6120   140.1540 o          1 GX3      -0.522000
     12 N2          80.7590     2.6450   144.0340 nb         1 GX3      -0.313000
     13 O2          87.5760    -0.9980   140.2260 os         1 GX3      -0.321100
     14 C3          83.2600     3.5200   144.5930 ca         1 GX3       0.209900
     15 O3          85.8720     2.2260   137.0860 os         1 GX3      -0.321100
     16 N4          81.4510     1.6130   142.0870 n          1 GX3      -0.362300
     17 O4          76.2820    -1.3460   136.0010 o          1 GX3      -0.609100
     18 N5          77.6220     0.6700   140.2250 n3         1 GX3      -0.719600
     19 N6          76.4940    -1.0090   138.2220 n          1 GX3      -0.413800
     20 C7          83.7740     1.7160   141.3950 cd         1 GX3      -0.174400
     21 C9          80.0670     1.2040   141.8450 c3         1 GX3       0.100000
     22 C10         84.8100     1.3200   140.4210 ca         1 GX3       0.057200
     23 C11         84.8990     1.9450   139.1830 ca         1 GX3       0.060500
     24 C12         85.8770     1.5810   138.2560 ca         1 GX3       0.189600
     25 C13         86.7920     0.5880   138.5920 ca         1 GX3      -0.280000
     26 C14         86.7280    -0.0440   139.8290 ca         1 GX3       0.189600
     27 C15         85.7250     0.3200   140.7290 ca         1 GX3       0.060500
     28 C16         86.8320     1.8750   136.1050 c3         1 GX3       0.148400
     29 C17         88.5860    -1.4340   139.3350 c3         1 GX3       0.148400
     30 C18         79.2720     2.2970   141.1440 c3         1 GX3      -0.090400
     31 C19         77.8120     1.9110   140.9550 c3         1 GX3       0.172800
     32 C20         78.0420     0.7700   138.8390 c6         1 GX3       0.144300
     33 C21         77.8690    -0.5550   138.1170 c6         1 GX3       0.099000
     34 C22         76.0670    -1.1100   139.6050 c6         1 GX3       0.099000
     35 C23         76.2460     0.2230   140.3080 c6         1 GX3       0.144300
     36 C24         75.7810    -1.3350   137.1200 c          1 GX3       0.610300
     37 C25         74.3400    -1.6720   137.2990 ce         1 GX3      -0.294200
     38 C26         73.6680    -2.3130   136.3500 c2         1 GX3      -0.240000
     39 H1          80.3410     4.1880   146.7830 hn         1 GX3       0.514000
     40 H2          78.1400     3.6250   146.6270 h1         1 GX3       0.044033
     41 H3          78.2950     3.6360   144.8670 h1         1 GX3       0.044033
     42 H4          78.6230     2.1560   145.7730 h1         1 GX3       0.044033
     43 H5          85.0900     2.7660   142.6810 ha         1 GX3       0.195000
     44 H6          84.2580     3.8790   144.8310 h4         1 GX3       0.025100
     45 H8          79.6130     0.9630   142.8040 h1         1 GX3       0.079700
     46 H9          80.0860     0.2960   141.2510 h1         1 GX3       0.079700
     47 H10         87.5610     0.3080   137.8850 ha         1 GX3       0.126000
     48 H11         86.6380     2.5150   135.2490 h1         1 GX3       0.044533
     49 H12         87.8520     2.0520   136.4540 h1         1 GX3       0.044533
     50 H13         86.7340     0.8320   135.7960 h1         1 GX3       0.044533
     51 H14         89.1340    -2.2140   139.8560 h1         1 GX3       0.044533
     52 H15         88.1650    -1.8510   138.4170 h1         1 GX3       0.044533
     53 H16         89.2770    -0.6280   139.0790 h1         1 GX3       0.044533
     54 H17         79.7440     2.5480   140.1910 hc         1 GX3       0.052700
     55 H18         79.2940     3.2090   141.7440 hc         1 GX3       0.052700
     56 H19         77.2810     2.7480   140.4740 h1         1 GX3       0.031200
     57 H20         77.3590     1.7850   141.9430 h1         1 GX3       0.031200
     58 H21         79.0980     1.0390   138.7900 h1         1 GX3       0.041450
     59 H22         77.4800     1.5530   138.3010 h1         1 GX3       0.041450
     60 H23         78.5320    -1.3050   138.5610 h1         1 GX3       0.060950
     61 H24         78.1420    -0.4450   137.0710 h1         1 GX3       0.060950
     62 H25         75.0340    -1.4320   139.6860 h1         1 GX3       0.060950
     63 H26         76.6780    -1.8710   140.1030 h1         1 GX3       0.060950
     64 H27         75.5460     0.9540   139.8690 h1         1 GX3       0.041450
     65 H28         75.9730     0.1040   141.3590 h1         1 GX3       0.041450
     66 H29         73.8180    -1.3690   138.1970 ha         1 GX3       0.177000
     67 H31         72.6170    -2.5410   136.4700 ha         1 GX3       0.174000
     68 H32         74.1370    -2.6390   135.4300 ha         1 GX3       0.174000
@<TRIPOS>BOND
     1     1     4 ar  
     2     1    14 ar  
     3     2    10 ar  
     4     2    12 ar  
     5     2    16 1   
     6     3     4 1   
     7     3     5 1   
     8     3    39 1   
     9     4    12 ar  
    10     5    40 1   
    11     5    41 1   
    12     5    42 1   
    13     6    11 2   
    14     6    16 1   
    15     6    20 1   
    16     7    10 1   
    17     7    20 2   
    18     7    43 1   
    19     8    23 1   
    20     9    27 1   
    21    10    14 ar  
    22    13    26 1   
    23    13    29 1   
    24    14    44 1   
    25    15    24 1   
    26    15    28 1   
    27    16    21 1   
    28    17    36 2   
    29    18    31 1   
    30    18    32 1   
    31    18    35 1   
    32    19    33 1   
    33    19    34 1   
    34    19    36 1   
    35    20    22 1   
    36    21    30 1   
    37    21    45 1   
    38    21    46 1   
    39    22    23 ar  
    40    22    27 ar  
    41    23    24 ar  
    42    24    25 ar  
    43    25    26 ar  
    44    25    47 1   
    45    26    27 ar  
    46    28    48 1   
    47    28    49 1   
    48    28    50 1   
    49    29    51 1   
    50    29    52 1   
    51    29    53 1   
    52    30    31 1   
    53    30    54 1   
    54    30    55 1   
    55    31    56 1   
    56    31    57 1   
    57    32    33 1   
    58    32    58 1   
    59    32    59 1   
    60    33    60 1   
    61    33    61 1   
    62    34    35 1   
    63    34    62 1   
    64    34    63 1   
    65    35    64 1   
    66    35    65 1   
    67    36    37 1   
    68    37    38 2   
    69    37    66 1   
    70    38    67 1   
    71    38    68 1   
@<TRIPOS>SUBSTRUCTURE
     1 GX3         1 TEMP              0 ****  ****    0 ROOT
