@<TRIPOS>MOLECULE
GX4
   35    37     1     0     0
SMALL
abcg2


@<TRIPOS>ATOM
      1 N1          -2.2160     0.5850     0.4550 n          1 GX4      -0.406800
      2 C4           2.8640     1.2190     0.0940 ca         1 GX4      -0.128500
      3 C5           4.2110     1.0120    -0.1440 ca         1 GX4      -0.124500
      4 C6          -0.2030    -0.7320     0.8700 c6         1 GX4       0.167800
      5 C7          -1.5410    -0.2600     1.4190 c6         1 GX4       0.092500
      6 C8          -1.3990     1.7340     0.1090 c6         1 GX4       0.092500
      7 C10         -3.3230     0.2830    -0.2650 c          1 GX4       0.641100
      8 C13         -5.5770    -0.9310    -0.2230 cx         1 GX4      -0.098400
      9 O           -3.6950     0.9930    -1.1950 o          1 GX4      -0.612100
     10 C11         -4.1070    -0.9270     0.1080 cx         1 GX4      -0.241700
     11 C12         -4.6490    -1.7700    -1.0220 cx         1 GX4      -0.098400
     12 C9          -0.0580     1.2860    -0.4450 c6         1 GX4       0.167800
     13 N            0.6190     0.4000     0.4950 nh         1 GX4      -0.779400
     14 C3           1.9720     0.1470     0.2350 ca         1 GX4       0.267000
     15 C2           2.4920    -1.1470     0.1360 ca         1 GX4      -0.128500
     16 C1           3.8470    -1.3650    -0.0870 ca         1 GX4      -0.124500
     17 C            4.6870    -0.2830    -0.2290 ca         1 GX4       0.141000
     18 F            6.0000    -0.4880    -0.4510 f          1 GX4      -0.181000
     19 H2           4.8840     1.8530    -0.2460 ha         1 GX4       0.130500
     20 H3           0.3020    -1.3000     1.6540 h1         1 GX4       0.046950
     21 H4          -0.3830    -1.4190     0.0290 h1         1 GX4       0.046950
     22 H5          -1.3770     0.3160     2.3350 h1         1 GX4       0.064950
     23 H6          -2.1340    -1.1270     1.6900 h1         1 GX4       0.064950
     24 H7          -1.9130     2.3530    -0.6200 h1         1 GX4       0.064950
     25 H8          -1.2420     2.3330     1.0110 h1         1 GX4       0.064950
     26 H9          -6.2280    -1.4190     0.4900 hc         1 GX4       0.081200
     27 H10         -5.9870    -0.0430    -0.6840 hc         1 GX4       0.081200
     28 H11         -3.8370    -1.4680     1.0020 hc         1 GX4       0.085700
     29 H12         -4.6530    -2.8410    -0.8720 hc         1 GX4       0.081200
     30 H13         -4.4170    -1.4530    -2.0300 hc         1 GX4       0.081200
     31 H14         -0.2110     0.7890    -1.4150 h1         1 GX4       0.046950
     32 H15          0.5480     2.1710    -0.6290 h1         1 GX4       0.046950
     33 H16          1.8490    -2.0110     0.2200 ha         1 GX4       0.118000
     34 H17          4.2300    -2.3740    -0.1610 ha         1 GX4       0.130500
     35 H1           2.5070     2.2360     0.1900 ha         1 GX4       0.118000
@<TRIPOS>BOND
     1     1     5 1   
     2     1     6 1   
     3     1     7 1   
     4     2     3 ar  
     5     2    14 ar  
     6     2    35 1   
     7     3    17 ar  
     8     3    19 1   
     9     4     5 1   
    10     4    13 1   
    11     4    20 1   
    12     4    21 1   
    13     5    22 1   
    14     5    23 1   
    15     6    12 1   
    16     6    24 1   
    17     6    25 1   
    18     7     9 2   
    19     7    10 1   
    20     8    10 1   
    21     8    11 1   
    22     8    26 1   
    23     8    27 1   
    24    10    11 1   
    25    10    28 1   
    26    11    29 1   
    27    11    30 1   
    28    12    13 1   
    29    12    31 1   
    30    12    32 1   
    31    13    14 1   
    32    14    15 ar  
    33    15    16 ar  
    34    15    33 1   
    35    16    17 ar  
    36    16    34 1   
    37    17    18 1   
@<TRIPOS>SUBSTRUCTURE
     1 GX4         1 TEMP              0 ****  ****    0 ROOT
