@<TRIPOS>MOLECULE
GX4
   35    37     1     0     0
SMALL
No Charge or Current Charge


@<TRIPOS>ATOM
      1 N1          -2.2390     0.3900    -0.0780 n          1 GX4      -0.406800
      2 C4           2.8230     1.2150     0.4870 ca         1 GX4      -0.128500
      3 C5           4.2250     1.1910     0.6150 ca         1 GX4      -0.124500
      4 C6          -0.1310    -1.1030     0.1030 c6         1 GX4       0.167800
      5 C7          -1.5670    -0.7720     0.5960 c6         1 GX4       0.092500
      6 C8          -1.3350     1.5120    -0.4860 c6         1 GX4       0.092500
      7 C10         -3.6230     0.6370     0.0700 c          1 GX4       0.641100
      8 C13         -5.8810    -0.6750     0.2520 cx         1 GX4      -0.098400
      9 O           -4.1340     1.6920    -0.2830 o          1 GX4      -0.612100
     10 C11         -4.4440    -0.4750     0.6970 cx         1 GX4      -0.241700
     11 C12         -4.8230    -1.6700    -0.1570 cx         1 GX4      -0.098400
     12 C9           0.0830     1.0940    -0.9610 c6         1 GX4       0.167800
     13 N            0.7070     0.1150    -0.0360 nh         1 GX4      -0.779400
     14 C3           2.1170     0.0630     0.0850 ca         1 GX4       0.267000
     15 C2           2.8400    -1.1200    -0.1870 ca         1 GX4      -0.128500
     16 C1           4.2420    -1.1460    -0.0600 ca         1 GX4      -0.124500
     17 C            4.9290     0.0090     0.3410 ca         1 GX4       0.141000
     18 F            6.2740    -0.0160     0.4640 f          1 GX4      -0.181000
     19 H2           4.7620     2.0830     0.9280 ha         1 GX4       0.130500
     20 H3           0.3240    -1.8080     0.8140 h1         1 GX4       0.046950
     21 H4          -0.2010    -1.6160    -0.8680 h1         1 GX4       0.046950
     22 H5          -1.5170    -0.5560     1.6730 h1         1 GX4       0.064950
     23 H6          -2.1700    -1.6820     0.4800 h1         1 GX4       0.064950
     24 H7          -1.8070     2.0930    -1.2900 h1         1 GX4       0.064950
     25 H8          -1.2230     2.1870     0.3740 h1         1 GX4       0.064950
     26 H9          -6.6060    -0.9860     1.0000 hc         1 GX4       0.081200
     27 H10         -6.2820    -0.0210    -0.5200 hc         1 GX4       0.081200
     28 H11         -4.2380    -0.6590     1.7480 hc         1 GX4       0.085700
     29 H12         -4.8370    -2.6490     0.3160 hc         1 GX4       0.081200
     30 H13         -4.5080    -1.6750    -1.1990 hc         1 GX4       0.081200
     31 H14          0.0020     0.6510    -1.9650 h1         1 GX4       0.046950
     32 H15          0.7010     1.9980    -1.0580 h1         1 GX4       0.046950
     33 H16          2.3230    -2.0180    -0.5090 ha         1 GX4       0.118000
     34 H17          4.7940    -2.0580    -0.2730 ha         1 GX4       0.130500
     35 H1           2.2810     2.1290     0.7090 ha         1 GX4       0.118000
@<TRIPOS>BOND
     1     1     5 1   
     2     1     6 1   
     3     1     7 1   
     4     2     3 ar  
     5     2    14 ar  
     6     2    35 1   
     7     3    17 ar  
     8     3    19 1   
     9     4     5 1   
    10     4    13 1   
    11     4    20 1   
    12     4    21 1   
    13     5    22 1   
    14     5    23 1   
    15     6    12 1   
    16     6    24 1   
    17     6    25 1   
    18     7     9 2   
    19     7    10 1   
    20     8    10 1   
    21     8    11 1   
    22     8    26 1   
    23     8    27 1   
    24    10    11 1   
    25    10    28 1   
    26    11    29 1   
    27    11    30 1   
    28    12    13 1   
    29    12    31 1   
    30    12    32 1   
    31    13    14 1   
    32    14    15 ar  
    33    15    16 ar  
    34    15    33 1   
    35    16    17 ar  
    36    16    34 1   
    37    17    18 1   
@<TRIPOS>SUBSTRUCTURE
     1 GX4         1 TEMP              0 ****  ****    0 ROOT
