@<TRIPOS>MOLECULE
GX5
   34    36     1     0     0
SMALL
No Charge or Current Charge


@<TRIPOS>ATOM
      1 N12         18.3690    66.6440    42.5840 nh         1 GX5      -0.770100
      2 C13         19.7120    67.2780    42.4980 c3         1 GX5       0.214100
      3 C15         18.2850    66.3350    45.0250 ca         1 GX5      -0.064500
      4 C17         17.4340    64.2590    45.9820 ca         1 GX5       0.144100
      5 C21         16.5920    62.2030    47.0580 c3         1 GX5       0.147900
      6 C01         14.0380    66.9610    42.8090 ca         1 GX5       0.328900
      7 C02         13.2660    67.0170    41.6420 ca         1 GX5      -0.136000
      8 C03         13.9140    66.9870    40.3980 ca         1 GX5      -0.065000
      9 C04         15.3180    66.8970    40.3570 ca         1 GX5       0.012000
     10 C05         16.0410    66.8310    41.5870 ca         1 GX5       0.143000
     11 C07         17.4740    66.7380    41.4700 ca         1 GX5       0.429900
     12 C09         17.2930    66.8070    39.1820 ca         1 GX5       0.275000
     13 C14         18.0540    65.8540    43.7190 ca         1 GX5       0.244000
     14 C16         17.9760    65.5420    46.1460 ca         1 GX5      -0.164500
     15 C18         17.2000    63.7660    44.6800 ca         1 GX5      -0.164500
     16 C19         17.5100    64.5620    43.5610 ca         1 GX5      -0.064500
     17 N06         15.3860    66.8730    42.7890 nb         1 GX5      -0.626000
     18 N08         18.0810    66.7370    40.2650 nb         1 GX5      -0.284000
     19 N10         15.9520    66.8810    39.1670 nb         1 GX5      -0.193000
     20 Cl1         18.0990    66.7960    37.6230 cl         1 GX5      -0.138000
     21 H1          20.2460    67.2230    43.4560 h1         1 GX5       0.051700
     22 H2          20.3350    66.7740    41.7470 h1         1 GX5       0.051700
     23 H3          19.6200    68.3400    42.2330 h1         1 GX5       0.051700
     24 H4          18.6900    67.3320    45.1720 ha         1 GX5       0.123000
     25 H5          16.4460    61.8070    48.0700 h1         1 GX5       0.042033
     26 H6          15.6170    62.2140    46.5540 h1         1 GX5       0.042033
     27 H7          17.2610    61.5210    46.5190 h1         1 GX5       0.042033
     28 H8          13.5660    66.9870    43.7900 h4         1 GX5       0.025100
     29 H9          12.1840    67.0880    41.7060 ha         1 GX5       0.128000
     30 H10         13.3360    67.0360    39.4770 ha         1 GX5       0.142000
     31 H11         18.1550    65.9280    47.1470 ha         1 GX5       0.125500
     32 H12         16.7840    62.7770    44.5160 ha         1 GX5       0.125500
     33 H13         17.3320    64.1710    42.5640 ha         1 GX5       0.123000
     34 O20         17.1510    63.5280    47.1180 os         1 GX5      -0.340100
@<TRIPOS>BOND
     1     1     2 1   
     2     1    11 1   
     3     1    13 1   
     4     2    21 1   
     5     2    22 1   
     6     2    23 1   
     7     3    13 ar  
     8     3    14 ar  
     9     3    24 1   
    10     4    14 ar  
    11     4    15 ar  
    12     4    34 1   
    13     5    25 1   
    14     5    26 1   
    15     5    27 1   
    16     5    34 1   
    17     6     7 ar  
    18     6    17 ar  
    19     6    28 1   
    20     7     8 ar  
    21     7    29 1   
    22     8     9 ar  
    23     8    30 1   
    24     9    10 ar  
    25     9    19 ar  
    26    10    11 ar  
    27    10    17 ar  
    28    11    18 ar  
    29    12    18 ar  
    30    12    19 ar  
    31    12    20 1   
    32    13    16 ar  
    33    14    31 1   
    34    15    16 ar  
    35    15    32 1   
    36    16    33 1   
@<TRIPOS>SUBSTRUCTURE
     1 GX5         1 TEMP              0 ****  ****    0 ROOT
