@<TRIPOS>MOLECULE
GX5
   34    36     1     0     0
SMALL
bcc


@<TRIPOS>ATOM
      1 N12         18.3250    66.6220    42.5510 nh         1 GX5      -0.631700
      2 C13         19.7560    66.8250    42.3590 c3         1 GX5       0.214100
      3 C15         18.0200    66.4430    44.9660 ca         1 GX5      -0.082500
      4 C17         17.3340    64.3590    45.9640 ca         1 GX5       0.144100
      5 C21         16.6430    62.3610    47.0400 c3         1 GX5       0.124700
      6 C01         14.1350    66.7120    42.8400 ca         1 GX5       0.394200
      7 C02         13.3330    66.8400    41.6920 ca         1 GX5      -0.219300
      8 C03         13.9410    66.9840    40.4760 ca         1 GX5      -0.148300
      9 C04         15.3480    66.9870    40.4150 ca         1 GX5       0.340300
     10 C05         16.0540    66.8110    41.6180 ca         1 GX5       0.143000
     11 C07         17.4990    66.8120    41.5090 ca         1 GX5       0.692900
     12 C09         17.2560    67.2260    39.2890 ca         1 GX5       0.801000
     13 C14         17.9560    65.8680    43.7020 ca         1 GX5       0.105600
     14 C16         17.7140    65.6980    46.0870 ca         1 GX5      -0.182500
     15 C18         17.2820    63.7790    44.6990 ca         1 GX5      -0.182500
     16 C19         17.6050    64.5350    43.5790 ca         1 GX5      -0.082500
     17 N06         15.4430    66.6960    42.8050 nb         1 GX5      -0.626000
     18 N08         18.0550    67.0570    40.3310 nb         1 GX5      -0.810000
     19 N10         15.9670    67.1880    39.2210 nb         1 GX5      -0.719000
     20 CL1         18.0880    67.5210    37.7940 cl         1 GX5      -0.138000
     21 H1          20.2290    66.8670    43.3360 h1         1 GX5       0.051700
     22 H2          20.2060    66.0110    41.7880 h1         1 GX5       0.051700
     23 H3          19.9470    67.7620    41.8410 h1         1 GX5       0.051700
     24 H4          18.2970    67.4840    45.0730 ha         1 GX5       0.141000
     25 H5          16.4510    62.0430    48.0620 h1         1 GX5       0.042033
     26 H6          15.7290    62.2360    46.4540 h1         1 GX5       0.042033
     27 H7          17.4230    61.7230    46.6150 h1         1 GX5       0.042033
     28 H8          13.6720    66.6240    43.8160 h4         1 GX5       0.025100
     29 H9          12.2560    66.8350    41.7850 ha         1 GX5       0.146000
     30 H10         13.3720    67.1040    39.5630 ha         1 GX5       0.160000
     31 H11         17.7590    66.1510    47.0700 ha         1 GX5       0.143500
     32 H12         17.0050    62.7430    44.5610 ha         1 GX5       0.143500
     33 H13         17.5700    64.0720    42.6010 ha         1 GX5       0.141000
     34 O20         17.0460    63.7140    47.1090 os         1 GX5      -0.316900
@<TRIPOS>BOND
     1     1     2 1   
     2     1    11 1   
     3     1    13 1   
     4     2    21 1   
     5     2    22 1   
     6     2    23 1   
     7     3    13 ar  
     8     3    14 ar  
     9     3    24 1   
    10     4    14 ar  
    11     4    15 ar  
    12     4    34 1   
    13     5    25 1   
    14     5    26 1   
    15     5    27 1   
    16     5    34 1   
    17     6     7 ar  
    18     6    17 ar  
    19     6    28 1   
    20     7     8 ar  
    21     7    29 1   
    22     8     9 ar  
    23     8    30 1   
    24     9    10 ar  
    25     9    19 ar  
    26    10    11 ar  
    27    10    17 ar  
    28    11    18 ar  
    29    12    18 ar  
    30    12    19 ar  
    31    12    20 1   
    32    13    16 ar  
    33    14    31 1   
    34    15    16 ar  
    35    15    32 1   
    36    16    33 1   
@<TRIPOS>SUBSTRUCTURE
     1 GX5         1 TEMP              0 ****  ****    0 ROOT
