@<TRIPOS>MOLECULE
GX6
   51    54     1     0     0
SMALL
bcc


@<TRIPOS>ATOM
      1 C1          20.0110    38.3800    -9.1880 ca         1 GX6       0.123900
      2 C2          21.3160    38.7550    -8.9470 ca         1 GX6      -0.152000
      3 C3          21.6450    39.4700    -7.8060 ca         1 GX6      -0.121000
      4 C4          20.6370    39.7930    -6.9020 ca         1 GX6       0.055600
      5 C5          21.9830    40.9690    -5.1840 c          1 GX6       0.580600
      6 C6          21.7740    41.7220    -3.8970 ca         1 GX6       0.368800
      7 N1          20.8360    40.5080    -5.7180 ns         1 GX6      -0.450100
      8 N2          20.5260    41.8470    -3.4560 nb         1 GX6      -0.680000
      9 N3          20.8090    44.4080     0.5440 n1         1 GX6      -0.336800
     10 O1          23.0990    40.8290    -5.6490 o          1 GX6      -0.579100
     11 C7          20.3030    42.5140    -2.3440 ca         1 GX6       0.446200
     12 C8          21.3380    43.0960    -1.6100 ca         1 GX6      -0.115300
     13 C9          21.0470    43.8210    -0.4180 cg         1 GX6       0.227800
     14 C10         22.6470    42.9610    -2.0640 ca         1 GX6      -0.061000
     15 C11         22.8680    42.2570    -3.2330 ca         1 GX6      -0.189300
     16 C12         19.3280    39.3900    -7.1690 ca         1 GX6      -0.144000
     17 C13         18.9730    38.6950    -8.3180 ca         1 GX6      -0.091300
     18 C14         17.4980    38.3230    -8.5720 c6         1 GX6       0.353600
     19 C15         17.4270    36.9350    -9.0520 c1         1 GX6      -0.131100
     20 O2          16.0260    40.5730    -7.7130 os         1 GX6      -0.458400
     21 F1          19.7730    37.6770   -10.3070 f          1 GX6      -0.140900
     22 C16         17.3510    35.7950    -9.4240 c1         1 GX6      -0.104100
     23 C17         17.2790    34.4130    -9.8720 c3         1 GX6      -0.007000
     24 C18         16.8470    39.2970    -9.5880 cy         1 GX6      -0.124000
     25 C19         17.3630    39.3880   -11.0410 cy         1 GX6      -0.123900
     26 C20         15.9140    39.3730   -11.4960 cy         1 GX6       0.407600
     27 F2          15.6170    38.6030   -12.5730 f          1 GX6      -0.230800
     28 F3          15.4330    40.6150   -11.7950 f          1 GX6      -0.230800
     29 C21         15.4590    38.8700   -10.1380 cy         1 GX6      -0.123900
     30 C22         16.7790    40.6530    -8.9190 c6         1 GX6       0.150400
     31 C23         16.0960    39.4250    -7.0290 c2         1 GX6       0.819500
     32 N4          15.4020    39.5090    -5.8680 nv         1 GX6      -0.912800
     33 N5          16.7440    38.3680    -7.3360 n2         1 GX6      -0.754900
     34 H1          22.0870    38.4860    -9.6570 ha         1 GX6       0.153000
     35 H2          22.6700    39.7580    -7.6420 ha         1 GX6       0.170000
     36 H3          20.0060    40.7230    -5.1780 hn         1 GX6       0.352500
     37 H4          19.2750    42.6000    -2.0120 h4         1 GX6       0.038100
     38 H5          23.4700    43.3980    -1.5160 ha         1 GX6       0.158000
     39 H6          23.8680    42.1300    -3.6210 ha         1 GX6       0.176000
     40 H7          18.5670    39.6200    -6.4380 ha         1 GX6       0.148000
     41 H8          16.7530    34.3360   -10.8240 hc         1 GX6       0.052700
     42 H9          18.2750    33.9920   -10.0070 hc         1 GX6       0.052700
     43 H10         16.7500    33.7920    -9.1480 hc         1 GX6       0.052700
     44 H11         17.8630    38.4750   -11.3550 hc         1 GX6       0.090450
     45 H12         17.9730    40.2490   -11.3160 hc         1 GX6       0.090450
     46 H13         14.5710    39.3350    -9.7090 hc         1 GX6       0.090450
     47 H14         15.3330    37.7870   -10.1420 hc         1 GX6       0.090450
     48 H15         17.7790    41.0410    -8.7040 h1         1 GX6       0.072700
     49 H16         16.2720    41.3900    -9.5400 h1         1 GX6       0.072700
     50 H17         14.6780    40.2050    -5.7950 hn         1 GX6       0.433300
     51 H18         15.2020    38.6360    -5.4100 hn         1 GX6       0.433300
@<TRIPOS>BOND
     1     1     2 ar  
     2     1    17 ar  
     3     1    21 1   
     4     2     3 ar  
     5     2    34 1   
     6     3     4 ar  
     7     3    35 1   
     8     4     7 1   
     9     4    16 ar  
    10     5     6 1   
    11     5     7 1   
    12     5    10 2   
    13     6     8 ar  
    14     6    15 ar  
    15     7    36 1   
    16     8    11 ar  
    17     9    13 3   
    18    11    12 ar  
    19    11    37 1   
    20    12    13 1   
    21    12    14 ar  
    22    14    15 ar  
    23    14    38 1   
    24    15    39 1   
    25    16    17 ar  
    26    16    40 1   
    27    17    18 1   
    28    18    19 1   
    29    18    24 1   
    30    18    33 1   
    31    19    22 3   
    32    20    30 1   
    33    20    31 1   
    34    22    23 1   
    35    23    41 1   
    36    23    42 1   
    37    23    43 1   
    38    24    25 1   
    39    24    29 1   
    40    24    30 1   
    41    25    26 1   
    42    25    44 1   
    43    25    45 1   
    44    26    27 1   
    45    26    28 1   
    46    26    29 1   
    47    29    46 1   
    48    29    47 1   
    49    30    48 1   
    50    30    49 1   
    51    31    32 1   
    52    31    33 2   
    53    32    50 1   
    54    32    51 1   
@<TRIPOS>SUBSTRUCTURE
     1 GX6         1 TEMP              0 ****  ****    0 ROOT
