@<TRIPOS>MOLECULE
GX6
   51    54     1     0     0
SMALL
No Charge or Current Charge


@<TRIPOS>ATOM
      1 C1          20.0200    38.3540    -9.2220 ca         1 GX6       0.159000
      2 C2          21.3450    38.7380    -8.9690 ca         1 GX6      -0.134000
      3 C3          21.6760    39.4660    -7.8190 ca         1 GX6      -0.103000
      4 C4          20.6690    39.8170    -6.9020 ca         1 GX6      -0.037000
      5 C5          22.0690    41.1130    -5.1610 c          1 GX6       0.513600
      6 C6          21.8440    41.8230    -3.8230 ca         1 GX6       0.303500
      7 N1          20.9170    40.5530    -5.7080 ns         1 GX6      -0.124000
      8 N2          20.5860    41.8560    -3.2860 nb         1 GX6      -0.680000
      9 N3          20.9590    44.2950     0.8710 n1         1 GX6      -0.426000
     10 O1          23.1740    41.0500    -5.6980 o          1 GX6      -0.579100
     11 C7          20.4000    42.4890    -2.1000 ca         1 GX6       0.380900
     12 C8          21.4400    43.1140    -1.3940 ca         1 GX6      -0.050000
     13 C9          21.1690    43.7630    -0.1470 cg         1 GX6       0.317000
     14 C10         22.7370    43.0870    -1.9350 ca         1 GX6      -0.043000
     15 C11         22.9360    42.4330    -3.1640 ca         1 GX6      -0.106000
     16 C12         19.3400    39.4280    -7.1580 ca         1 GX6      -0.126000
     17 C13         18.9700    38.6900    -8.3200 ca         1 GX6      -0.091300
     18 C14         17.4640    38.2900    -8.5800 c6         1 GX6       0.353600
     19 C15         17.3980    36.8660    -8.9950 c1         1 GX6      -0.131100
     20 O2          15.9300    40.5520    -7.8230 os         1 GX6      -0.481600
     21 F1          19.8000    37.6510   -10.3530 f          1 GX6      -0.176000
     22 C16         17.3240    35.7160    -9.3640 c1         1 GX6      -0.104100
     23 C17         17.2410    34.3340    -9.8470 c3         1 GX6      -0.007000
     24 C18         16.7900    39.2460    -9.6510 cy         1 GX6      -0.124000
     25 C19         17.3150    39.2010   -11.1370 cy         1 GX6      -0.123900
     26 C20         15.8370    39.4200   -11.6140 cy         1 GX6       0.165000
     27 F2          15.4750    38.7140   -12.7150 f          1 GX6      -0.109500
     28 F3          15.4700    40.7120   -11.8230 f          1 GX6      -0.109500
     29 C21         15.3910    38.7970   -10.2460 cy         1 GX6      -0.123900
     30 C22         16.7400    40.6590    -9.0070 c6         1 GX6       0.173600
     31 C23         16.0550    39.4610    -7.0280 c2         1 GX6       0.819500
     32 N4          15.2850    39.5840    -5.9500 nv         1 GX6      -1.023200
     33 N5          16.6730    38.3930    -7.3330 n2         1 GX6      -0.754900
     34 H1          22.1250    38.4650    -9.6760 ha         1 GX6       0.135000
     35 H2          22.7150    39.7400    -7.6630 ha         1 GX6       0.152000
     36 H3          20.0940    40.7020    -5.1360 hn         1 GX6       0.186000
     37 H4          19.3820    42.4890    -1.7110 h4         1 GX6       0.038100
     38 H5          23.5710    43.5600    -1.4190 ha         1 GX6       0.140000
     39 H6          23.9300    42.3990    -3.6030 ha         1 GX6       0.158000
     40 H7          18.5940    39.7190    -6.4260 ha         1 GX6       0.130000
     41 H8          16.4140    34.2290   -10.5590 hc         1 GX6       0.052700
     42 H9          18.1730    34.0510   -10.3500 hc         1 GX6       0.052700
     43 H10         17.0720    33.6470    -9.0100 hc         1 GX6       0.052700
     44 H11         17.7070    38.2350   -11.4690 hc         1 GX6       0.090450
     45 H12         18.0310    39.9780   -11.4240 hc         1 GX6       0.090450
     46 H13         14.5030    39.2490    -9.7910 hc         1 GX6       0.090450
     47 H14         15.2180    37.7170   -10.3030 hc         1 GX6       0.090450
     48 H15         17.7510    40.9940    -8.7370 h1         1 GX6       0.072700
     49 H16         16.3020    41.4100    -9.6770 h1         1 GX6       0.072700
     50 H17         14.5490    40.2550    -6.1160 hn         1 GX6       0.488500
     51 H18         14.9670    38.6810    -5.6260 hn         1 GX6       0.488500
@<TRIPOS>BOND
     1     1     2 ar  
     2     1    17 ar  
     3     1    21 1   
     4     2     3 ar  
     5     2    34 1   
     6     3     4 ar  
     7     3    35 1   
     8     4     7 1   
     9     4    16 ar  
    10     5     6 1   
    11     5     7 1   
    12     5    10 2   
    13     6     8 ar  
    14     6    15 ar  
    15     7    36 1   
    16     8    11 ar  
    17     9    13 3   
    18    11    12 ar  
    19    11    37 1   
    20    12    13 1   
    21    12    14 ar  
    22    14    15 ar  
    23    14    38 1   
    24    15    39 1   
    25    16    17 ar  
    26    16    40 1   
    27    17    18 1   
    28    18    19 1   
    29    18    24 1   
    30    18    33 1   
    31    19    22 3   
    32    20    30 1   
    33    20    31 1   
    34    22    23 1   
    35    23    41 1   
    36    23    42 1   
    37    23    43 1   
    38    24    25 1   
    39    24    29 1   
    40    24    30 1   
    41    25    26 1   
    42    25    44 1   
    43    25    45 1   
    44    26    27 1   
    45    26    28 1   
    46    26    29 1   
    47    29    46 1   
    48    29    47 1   
    49    30    48 1   
    50    30    49 1   
    51    31    32 1   
    52    31    33 2   
    53    32    50 1   
    54    32    51 1   
@<TRIPOS>SUBSTRUCTURE
     1 GX6         1 TEMP              0 ****  ****    0 ROOT
