@<TRIPOS>MOLECULE
GX7
   30    31     1     0     0
SMALL
No Charge or Current Charge


@<TRIPOS>ATOM
      1 N1           2.3700     1.4930    -0.3550 ns         1 GX7      -0.507600
      2 C4          -1.7040    -0.0910    -0.2470 c6         1 GX7       0.216500
      3 C5          -2.8000    -1.0720    -0.7350 c6         1 GX7      -0.084900
      4 C6          -4.1480    -0.3410    -0.9630 c6         1 GX7      -0.072400
      5 C7          -4.6040     0.4040     0.3160 c6         1 GX7      -0.076400
      6 C8          -3.5090     1.3780     0.8190 c6         1 GX7      -0.072400
      7 O1           4.6090     1.1820    -0.1950 o          1 GX7      -0.564000
      8 C3           3.4840     0.7270    -0.1480 c          1 GX7       0.613000
      9 C            1.0500     1.0420    -0.3170 cc         1 GX7      -0.129400
     10 N            3.2270    -0.5800     0.1140 ns         1 GX7      -0.462500
     11 C2           2.0120    -1.2020     0.1920 c          1 GX7       0.578200
     12 O            1.9290    -2.3980     0.4390 o          1 GX7      -0.533000
     13 C1           0.8260    -0.2940    -0.0490 cd         1 GX7      -0.009200
     14 N2          -0.4590    -0.8330     0.0110 nu         1 GX7      -0.785200
     15 C9          -2.1640     0.6430     1.0410 c6         1 GX7      -0.084900
     16 H1          -1.5430     0.6530    -1.0410 h1         1 GX7       0.029700
     17 H3          -2.9420    -1.8760     0.0010 hc         1 GX7       0.049200
     18 H4          -4.0440     0.3750    -1.7910 hc         1 GX7       0.040950
     19 H5          -4.9170    -1.0620    -1.2690 hc         1 GX7       0.040950
     20 H6          -5.5320     0.9570     0.1150 hc         1 GX7       0.042700
     21 H7          -4.8400    -0.3250     1.1040 hc         1 GX7       0.042700
     22 H8          -3.3710     2.1880     0.0880 hc         1 GX7       0.040950
     23 H9          -3.8340     1.8540     1.7540 hc         1 GX7       0.040950
     24 H10          0.3040     1.8090    -0.5060 h4         1 GX7       0.210000
     25 H11          4.0320    -1.1630     0.2700 hn         1 GX7       0.345500
     26 H13         -0.5180    -1.8360     0.2160 hn         1 GX7       0.484000
     27 H15         -2.2720    -0.0780     1.8640 hc         1 GX7       0.049200
     28 H16         -1.3990     1.3640     1.3580 hc         1 GX7       0.049200
     29 H17          2.5770     2.4710    -0.5500 hn         1 GX7       0.460000
     30 H2          -2.4810    -1.5540    -1.6700 hc         1 GX7       0.049200
@<TRIPOS>BOND
     1     1     8 1   
     2     1     9 1   
     3     1    29 1   
     4     2     3 1   
     5     2    14 1   
     6     2    15 1   
     7     2    16 1   
     8     3     4 1   
     9     3    17 1   
    10     3    30 1   
    11     4     5 1   
    12     4    18 1   
    13     4    19 1   
    14     5     6 1   
    15     5    20 1   
    16     5    21 1   
    17     6    15 1   
    18     6    22 1   
    19     6    23 1   
    20     7     8 2   
    21     8    10 1   
    22     9    13 2   
    23     9    24 1   
    24    10    11 1   
    25    10    25 1   
    26    11    12 2   
    27    11    13 1   
    28    13    14 1   
    29    14    26 1   
    30    15    27 1   
    31    15    28 1   
@<TRIPOS>SUBSTRUCTURE
     1 GX7         1 TEMP              0 ****  ****    0 ROOT
