@<TRIPOS>MOLECULE
GX7
   30    31     1     0     0
SMALL
bcc


@<TRIPOS>ATOM
      1 N1           2.2900     1.5290    -0.2220 ns         1 GX7      -0.461100
      2 C4          -1.6810    -0.1510    -0.2070 c6         1 GX7       0.216500
      3 C5          -2.7850    -1.1190    -0.6200 c6         1 GX7      -0.084900
      4 C6          -4.0940    -0.3880    -0.8980 c6         1 GX7      -0.072400
      5 C7          -4.5320     0.4590     0.2920 c6         1 GX7      -0.076400
      6 C8          -3.4250     1.4170     0.7190 c6         1 GX7      -0.072400
      7 O1           4.5430     1.2220    -0.1210 o          1 GX7      -0.639500
      8 C3           3.4090     0.7770    -0.1030 c          1 GX7       0.822500
      9 C            1.0090     1.0210    -0.1980 cc         1 GX7      -0.079400
     10 N            3.1460    -0.5680     0.0420 ns         1 GX7      -0.596500
     11 C2           1.9190    -1.1870     0.0990 c          1 GX7       0.720700
     12 O            1.8270    -2.3950     0.2320 o          1 GX7      -0.608500
     13 C1           0.7670    -0.2950    -0.0250 cd         1 GX7      -0.009200
     14 N2          -0.4700    -0.8950     0.0750 nu         1 GX7      -0.730000
     15 C9          -2.1270     0.6690     1.0060 c6         1 GX7      -0.084900
     16 H1          -1.5140     0.5410    -1.0500 h1         1 GX7       0.029700
     17 H3          -2.9330    -1.8490     0.1840 hc         1 GX7       0.049200
     18 H4          -3.9670     0.2580    -1.7740 hc         1 GX7       0.040950
     19 H5          -4.8710    -1.1120    -1.1570 hc         1 GX7       0.040950
     20 H6          -5.4400     1.0130     0.0460 hc         1 GX7       0.042700
     21 H7          -4.7850    -0.1970     1.1320 hc         1 GX7       0.042700
     22 H8          -3.2550     2.1520    -0.0750 hc         1 GX7       0.040950
     23 H9          -3.7310     1.9820     1.6030 hc         1 GX7       0.040950
     24 H10          0.2350     1.7640    -0.3110 h4         1 GX7       0.160000
     25 H11          3.9570    -1.1670     0.1310 hn         1 GX7       0.345500
     26 H13         -0.4720    -1.8460    -0.2620 hn         1 GX7       0.428800
     27 H15         -2.2730    -0.0180     1.8470 hc         1 GX7       0.049200
     28 H16         -1.3480     1.3720     1.3100 hc         1 GX7       0.049200
     29 H17          2.4120     2.5250    -0.3220 hn         1 GX7       0.346500
     30 H2          -2.4730    -1.6780    -1.5060 hc         1 GX7       0.049200
@<TRIPOS>BOND
     1     1     8 1   
     2     1     9 1   
     3     1    29 1   
     4     2     3 1   
     5     2    14 1   
     6     2    15 1   
     7     2    16 1   
     8     3     4 1   
     9     3    17 1   
    10     3    30 1   
    11     4     5 1   
    12     4    18 1   
    13     4    19 1   
    14     5     6 1   
    15     5    20 1   
    16     5    21 1   
    17     6    15 1   
    18     6    22 1   
    19     6    23 1   
    20     7     8 2   
    21     8    10 1   
    22     9    13 2   
    23     9    24 1   
    24    10    11 1   
    25    10    25 1   
    26    11    12 2   
    27    11    13 1   
    28    13    14 1   
    29    14    26 1   
    30    15    27 1   
    31    15    28 1   
@<TRIPOS>SUBSTRUCTURE
     1 GX7         1 TEMP              0 ****  ****    0 ROOT
