@<TRIPOS>MOLECULE
GX8
   74    77     1     0     0
SMALL
No Charge or Current Charge


@<TRIPOS>ATOM
      1 C10        -17.2940     5.9500    13.5560 ca         1 GX8      -0.101000
      2 C11        -16.2580     6.7280    14.0910 ca         1 GX8       0.289000
      3 C14        -15.6760     9.5160    13.1110 ca         1 GX8      -0.332500
      4 C15        -14.4540    10.0040    13.6120 ca         1 GX8       0.024500
      5 C16        -13.3620    10.1850    12.7460 ca         1 GX8      -0.203500
      6 C17        -13.4900     9.8860    11.3740 ca         1 GX8       0.161100
      7 C19        -11.1450    10.4780    10.8900 c3         1 GX8       0.152900
      8 C20        -14.7130     9.4050    10.8810 ca         1 GX8      -0.203500
      9 C21        -15.8050     9.2110    11.7420 ca         1 GX8       0.024500
     10 C24        -15.9350     7.8330    16.3330 c3         1 GX8       0.080800
     11 C25        -16.8450     8.2710    17.5380 c          1 GX8       0.724000
     12 C28        -14.9270     6.4170    13.7720 ca         1 GX8      -0.220000
     13 C29        -14.6230     5.3420    12.9060 ca         1 GX8       0.112100
     14 C31        -12.2130     5.9120    12.9180 c3         1 GX8       0.207900
     15 C32        -10.9150     5.3560    12.3380 ca         1 GX8      -0.071300
     16 C33         -9.9250     6.2410    11.8660 ca         1 GX8      -0.085500
     17 C34         -8.7130     5.7460    11.3540 ca         1 GX8      -0.120500
     18 C35         -8.4840     4.3610    11.3040 ca         1 GX8      -0.129000
     19 C36         -9.4660     3.4720    11.7710 ca         1 GX8      -0.120500
     20 C04        -14.5440     2.3190    11.9960 c3         1 GX8       0.090800
     21 C05        -15.0080     0.8340    11.7750 c          1 GX8       0.720000
     22 C08        -15.6770     4.5490    12.3670 ca         1 GX8       0.244000
     23 C09        -17.0050     4.8690    12.7080 ca         1 GX8      -0.028000
     24 C37        -10.6740     3.9670    12.2920 ca         1 GX8      -0.085500
     25 C38        -14.1100     4.5320     9.4660 ca         1 GX8      -0.322500
     26 C39        -12.9670     3.8030     9.0820 ca         1 GX8       0.026500
     27 C40        -11.7810     4.4780     8.7470 ca         1 GX8      -0.200500
     28 C41        -11.7310     5.8870     8.7970 ca         1 GX8       0.165100
     29 C43         -9.4320     5.9710     7.9100 c3         1 GX8       0.150900
     30 C44        -12.8670     6.6050     9.1970 ca         1 GX8      -0.200500
     31 C45        -14.0560     5.9370     9.5320 ca         1 GX8       0.026500
     32 N03        -15.4440     3.4260    11.5370 nh         1 GX8      -0.732300
     33 N12        -16.5400     7.7870    14.9630 nh         1 GX8      -0.731300
     34 O01        -15.6180     2.3450     9.2160 o          1 GX8      -0.559000
     35 O06        -14.2330     0.0570    11.2290 o          1 GX8      -0.722500
     36 O07        -16.0950     0.4820    12.2210 o          1 GX8      -0.722500
     37 O18        -12.4540    10.0480    10.4780 os         1 GX8      -0.354100
     38 O22        -17.0290    10.2890    15.2680 o          1 GX8      -0.550500
     39 O23        -18.2660     8.9520    13.4650 o          1 GX8      -0.550500
     40 O26        -16.3810     9.0550    18.3590 o          1 GX8      -0.719500
     41 O27        -17.9590     7.7720    17.6540 o          1 GX8      -0.719500
     42 O30        -13.3110     5.0520    12.5680 os         1 GX8      -0.347100
     43 O42        -10.6040     6.6040     8.4520 os         1 GX8      -0.355100
     44 O46        -16.7670     4.5850     9.6760 o          1 GX8      -0.559000
     45 S02        -15.6370     3.6650     9.8570 sy         1 GX8       1.202600
     46 S13        -17.0530     9.2450    14.2370 sy         1 GX8       1.196600
     47 H1         -18.3250     6.1760    13.8140 ha         1 GX8       0.153000
     48 H2         -14.3440    10.2350    14.6700 ha         1 GX8       0.141000
     49 H3         -12.4300    10.5590    13.1590 ha         1 GX8       0.116500
     50 H4         -10.4700    10.5210    10.0250 h1         1 GX8       0.038033
     51 H5         -11.1860    11.4790    11.3390 h1         1 GX8       0.038033
     52 H6         -10.7170     9.7800    11.6210 h1         1 GX8       0.038033
     53 H7         -14.8140     9.1770     9.8240 ha         1 GX8       0.116500
     54 H8         -16.7410     8.8240    11.3420 ha         1 GX8       0.141000
     55 H9         -15.5620     6.8320    16.5870 h1         1 GX8       0.034200
     56 H10        -15.0610     8.4960    16.3160 h1         1 GX8       0.034200
     57 H11        -14.1430     7.0320    14.2000 ha         1 GX8       0.110000
     58 H12        -12.3850     6.9220    12.5220 h1         1 GX8       0.045200
     59 H13        -12.1110     5.9820    14.0080 h1         1 GX8       0.045200
     60 H14        -10.0940     7.3150    11.8960 ha         1 GX8       0.127500
     61 H15         -7.9550     6.4360    10.9920 ha         1 GX8       0.104500
     62 H16         -7.5480     3.9780    10.9050 ha         1 GX8       0.095000
     63 H17         -9.2890     2.3990    11.7350 ha         1 GX8       0.104500
     64 H18        -13.5610     2.4330    11.5210 h1         1 GX8       0.034200
     65 H19        -14.3770     2.4230    13.0760 h1         1 GX8       0.034200
     66 H20        -17.8170     4.2630    12.3160 ha         1 GX8       0.154000
     67 H21        -11.4230     3.2680    12.6590 ha         1 GX8       0.127500
     68 H22        -12.9940     2.7150     9.0360 ha         1 GX8       0.136000
     69 H23        -10.9170     3.8920     8.4510 ha         1 GX8       0.117500
     70 H24         -8.6570     6.7200     7.7040 h1         1 GX8       0.036033
     71 H25         -9.0180     5.2390     8.6140 h1         1 GX8       0.036033
     72 H26         -9.6680     5.4570     6.9690 h1         1 GX8       0.036033
     73 H27        -12.8270     7.6890     9.2380 ha         1 GX8       0.117500
     74 H28        -14.9290     6.5120     9.8370 ha         1 GX8       0.136000
@<TRIPOS>BOND
     1     1     2 ar  
     2     1    23 ar  
     3     1    47 1   
     4     2    12 ar  
     5     2    33 1   
     6     3     4 ar  
     7     3     9 ar  
     8     3    46 1   
     9     4     5 ar  
    10     4    48 1   
    11     5     6 ar  
    12     5    49 1   
    13     6     8 ar  
    14     6    37 1   
    15     7    37 1   
    16     7    50 1   
    17     7    51 1   
    18     7    52 1   
    19     8     9 ar  
    20     8    53 1   
    21     9    54 1   
    22    10    11 1   
    23    10    33 1   
    24    10    55 1   
    25    10    56 1   
    26    11    40 1   
    27    11    41 1   
    28    12    13 ar  
    29    12    57 1   
    30    13    22 ar  
    31    13    42 1   
    32    14    15 1   
    33    14    42 1   
    34    14    58 1   
    35    14    59 1   
    36    15    16 ar  
    37    15    24 ar  
    38    16    17 ar  
    39    16    60 1   
    40    17    18 ar  
    41    17    61 1   
    42    18    19 ar  
    43    18    62 1   
    44    19    24 ar  
    45    19    63 1   
    46    20    21 1   
    47    20    32 1   
    48    20    64 1   
    49    20    65 1   
    50    21    35 1   
    51    21    36 1   
    52    22    23 ar  
    53    22    32 1   
    54    23    66 1   
    55    24    67 1   
    56    25    26 ar  
    57    25    31 ar  
    58    25    45 1   
    59    26    27 ar  
    60    26    68 1   
    61    27    28 ar  
    62    27    69 1   
    63    28    30 ar  
    64    28    43 1   
    65    29    43 1   
    66    29    70 1   
    67    29    71 1   
    68    29    72 1   
    69    30    31 ar  
    70    30    73 1   
    71    31    74 1   
    72    32    45 1   
    73    33    46 1   
    74    34    45 2   
    75    38    46 2   
    76    39    46 2   
    77    44    45 2   
@<TRIPOS>SUBSTRUCTURE
     1 GX8         1 TEMP              0 ****  ****    0 ROOT
