@<TRIPOS>MOLECULE
GX8
   74    77     1     0     0
SMALL
abcg2


@<TRIPOS>ATOM
      1 C10        -17.2600     5.8710    13.5960 ca         1 GX8      -0.101000
      2 C11        -16.2340     6.6680    14.0820 ca         1 GX8       0.289000
      3 C14        -15.6510     9.5420    13.0450 ca         1 GX8      -0.332500
      4 C15        -14.4440    10.0140    13.5530 ca         1 GX8       0.024500
      5 C16        -13.3460    10.1660    12.7180 ca         1 GX8      -0.203500
      6 C17        -13.4620     9.8480    11.3610 ca         1 GX8       0.161100
      7 C19        -11.1500    10.3080    10.9430 c3         1 GX8       0.152900
      8 C20        -14.6840     9.3930    10.8530 ca         1 GX8      -0.203500
      9 C21        -15.7690     9.2290    11.6910 ca         1 GX8       0.024500
     10 C24        -15.8810     7.8910    16.2380 c3         1 GX8       0.080800
     11 C25        -16.8370     7.8070    17.4520 c          1 GX8       0.724000
     12 C28        -14.9070     6.4090    13.7390 ca         1 GX8      -0.220000
     13 C29        -14.6010     5.3430    12.9010 ca         1 GX8       0.112100
     14 C31        -12.2780     5.9150    12.8410 c3         1 GX8       0.207900
     15 C32        -11.0010     5.3650    12.2750 ca         1 GX8      -0.071300
     16 C33         -9.9930     6.2450    11.8860 ca         1 GX8      -0.085500
     17 C34         -8.7800     5.7630    11.4080 ca         1 GX8      -0.120500
     18 C35         -8.5690     4.3920    11.3000 ca         1 GX8      -0.129000
     19 C36         -9.5760     3.5090    11.6760 ca         1 GX8      -0.120500
     20 C04        -14.5550     2.3190    12.0280 c3         1 GX8       0.090800
     21 C05        -15.3770     1.0940    12.4950 c          1 GX8       0.720000
     22 C08        -15.6390     4.5350    12.3950 ca         1 GX8       0.244000
     23 C09        -16.9500     4.8080    12.7550 ca         1 GX8      -0.028000
     24 C37        -10.7840     3.9920    12.1650 ca         1 GX8      -0.085500
     25 C38        -13.9860     4.5850     9.4080 ca         1 GX8      -0.322500
     26 C39        -12.8790     3.9010     8.9200 ca         1 GX8       0.026500
     27 C40        -11.7190     4.5910     8.5910 ca         1 GX8      -0.200500
     28 C41        -11.6660     5.9740     8.7670 ca         1 GX8       0.165100
     29 C43         -9.4370     6.1080     7.9110 c3         1 GX8       0.150900
     30 C44        -12.7810     6.6580     9.2710 ca         1 GX8      -0.200500
     31 C45        -13.9340     5.9700     9.5850 ca         1 GX8       0.026500
     32 N03        -15.3390     3.4510    11.5190 nh         1 GX8      -0.732300
     33 N12        -16.5280     7.7930    14.9210 nh         1 GX8      -0.731300
     34 O01        -15.3750     2.3860     9.2820 o          1 GX8      -0.559000
     35 O06        -14.6630     0.1480    12.9150 o          1 GX8      -0.722500
     36 O07        -16.6250     1.1320    12.4340 o          1 GX8      -0.722500
     37 O18        -12.4510     9.9460    10.4690 os         1 GX8      -0.354100
     38 O22        -17.0630    10.2040    15.1640 o          1 GX8      -0.550500
     39 O23        -18.1440     8.8950    13.3450 o          1 GX8      -0.550500
     40 O26        -16.2590     8.0040    18.5510 o          1 GX8      -0.719500
     41 O27        -18.0440     7.5470    17.2640 o          1 GX8      -0.719500
     42 O30        -13.3480     5.0290    12.5070 os         1 GX8      -0.347100
     43 O42        -10.5890     6.7390     8.4750 os         1 GX8      -0.355100
     44 O46        -16.5720     4.5440     9.6510 o          1 GX8      -0.559000
     45 S02        -15.4290     3.6940     9.8950 sy         1 GX8       1.202600
     46 S13        -16.9790     9.1780    14.1490 sy         1 GX8       1.196600
     47 H1         -18.2830     6.0840    13.8710 ha         1 GX8       0.153000
     48 H2         -14.3480    10.2580    14.6020 ha         1 GX8       0.141000
     49 H3         -12.4150    10.5270    13.1280 ha         1 GX8       0.116500
     50 H4         -10.4960    10.2540    10.0760 h1         1 GX8       0.038033
     51 H5         -11.1500    11.3220    11.3450 h1         1 GX8       0.038033
     52 H6         -10.8090     9.6070    11.7070 h1         1 GX8       0.038033
     53 H7         -14.7610     9.1610     9.7990 ha         1 GX8       0.116500
     54 H8         -16.7040     8.8520    11.3040 ha         1 GX8       0.141000
     55 H9         -15.1770     7.0640    16.3160 h1         1 GX8       0.034200
     56 H10        -15.3040     8.8090    16.3260 h1         1 GX8       0.034200
     57 H11        -14.1310     7.0610    14.1060 ha         1 GX8       0.110000
     58 H12        -12.4810     6.9090    12.4360 h1         1 GX8       0.045200
     59 H13        -12.2050     6.0000    13.9310 h1         1 GX8       0.045200
     60 H14        -10.1640     7.3120    11.9480 ha         1 GX8       0.127500
     61 H15         -8.0080     6.4580    11.1030 ha         1 GX8       0.104500
     62 H16         -7.6290     4.0150    10.9170 ha         1 GX8       0.095000
     63 H17         -9.4230     2.4410    11.5860 ha         1 GX8       0.104500
     64 H18        -13.8510     1.9850    11.2680 h1         1 GX8       0.034200
     65 H19        -13.9580     2.6690    12.8690 h1         1 GX8       0.034200
     66 H20        -17.7310     4.1720    12.3630 ha         1 GX8       0.154000
     67 H21        -11.5670     3.3030    12.4490 ha         1 GX8       0.127500
     68 H22        -12.9210     2.8290     8.7880 ha         1 GX8       0.136000
     69 H23        -10.8700     4.0450     8.2110 ha         1 GX8       0.117500
     70 H24         -8.7090     6.9020     7.7630 h1         1 GX8       0.036033
     71 H25         -9.0310     5.3600     8.5920 h1         1 GX8       0.036033
     72 H26         -9.6810     5.6460     6.9520 h1         1 GX8       0.036033
     73 H27        -12.7140     7.7280     9.4100 ha         1 GX8       0.117500
     74 H28        -14.7920     6.5040     9.9700 ha         1 GX8       0.136000
@<TRIPOS>BOND
     1     1     2 ar  
     2     1    23 ar  
     3     1    47 1   
     4     2    12 ar  
     5     2    33 1   
     6     3     4 ar  
     7     3     9 ar  
     8     3    46 1   
     9     4     5 ar  
    10     4    48 1   
    11     5     6 ar  
    12     5    49 1   
    13     6     8 ar  
    14     6    37 1   
    15     7    37 1   
    16     7    50 1   
    17     7    51 1   
    18     7    52 1   
    19     8     9 ar  
    20     8    53 1   
    21     9    54 1   
    22    10    11 1   
    23    10    33 1   
    24    10    55 1   
    25    10    56 1   
    26    11    40 1   
    27    11    41 1   
    28    12    13 ar  
    29    12    57 1   
    30    13    22 ar  
    31    13    42 1   
    32    14    15 1   
    33    14    42 1   
    34    14    58 1   
    35    14    59 1   
    36    15    16 ar  
    37    15    24 ar  
    38    16    17 ar  
    39    16    60 1   
    40    17    18 ar  
    41    17    61 1   
    42    18    19 ar  
    43    18    62 1   
    44    19    24 ar  
    45    19    63 1   
    46    20    21 1   
    47    20    32 1   
    48    20    64 1   
    49    20    65 1   
    50    21    35 1   
    51    21    36 1   
    52    22    23 ar  
    53    22    32 1   
    54    23    66 1   
    55    24    67 1   
    56    25    26 ar  
    57    25    31 ar  
    58    25    45 1   
    59    26    27 ar  
    60    26    68 1   
    61    27    28 ar  
    62    27    69 1   
    63    28    30 ar  
    64    28    43 1   
    65    29    43 1   
    66    29    70 1   
    67    29    71 1   
    68    29    72 1   
    69    30    31 ar  
    70    30    73 1   
    71    31    74 1   
    72    32    45 1   
    73    33    46 1   
    74    34    45 2   
    75    38    46 2   
    76    39    46 2   
    77    44    45 2   
@<TRIPOS>SUBSTRUCTURE
     1 GX8         1 TEMP              0 ****  ****    0 ROOT
