@<TRIPOS>MOLECULE
GXA
   61    64     1     0     0
SMALL
No Charge or Current Charge


@<TRIPOS>ATOM
      1 N3         -59.4240    34.4040    -2.1800 nt         1 GXA      -0.600000
      2 N2         -64.3240    31.8580    -7.1580 nc         1 GXA      -0.676000
      3 C7         -62.3130    31.2120    -5.0800 ca         1 GXA      -0.029000
      4 C6         -62.7710    32.5230    -5.2990 ca         1 GXA      -0.134500
      5 C9         -60.6160    32.0190    -3.5090 ca         1 GXA       0.169100
      6 C13        -57.9980    30.3410    -3.8720 c6         1 GXA      -0.115900
      7 C20        -51.9960    27.7430    -1.7310 ca         1 GXA      -0.085000
      8 C21        -50.6150    27.5740    -1.9310 ca         1 GXA      -0.095500
      9 C8         -61.2590    30.9620    -4.1910 ca         1 GXA      -0.208000
     10 C18        -54.0330    29.2150    -1.3420 c3         1 GXA      -0.108100
     11 C16        -57.9360    30.5110    -1.3430 c6         1 GXA      -0.115900
     12 C19        -52.5350    29.0310    -1.5620 ca         1 GXA      -0.056300
     13 N1         -65.4820    33.7630    -7.3050 na         1 GXA      -0.174500
     14 C1         -64.5480    33.9520    -6.3000 cd         1 GXA      -0.203000
     15 C2         -63.8620    32.7690    -6.2540 cc         1 GXA       0.293500
     16 C3         -65.3110    32.4730    -7.7990 cd         1 GXA       0.395400
     17 C5         -62.1260    33.5810    -4.6240 ca         1 GXA      -0.030000
     18 C10        -61.0580    33.3530    -3.7220 ca         1 GXA      -0.180600
     19 C11        -60.4430    34.5660    -3.0440 c          1 GXA       0.618700
     20 O1         -60.8400    35.7020    -3.2500 o          1 GXA      -0.635100
     21 C12        -58.8520    30.5220    -2.5890 c6         1 GXA       0.183300
     22 C14        -57.1270    29.0680    -3.7750 c6         1 GXA       0.100000
     23 N4         -56.2730    29.1000    -2.5580 n          1 GXA      -0.421800
     24 C15        -57.0640    29.2350    -1.3030 c6         1 GXA       0.100000
     25 C17        -54.8700    29.2970    -2.6350 c          1 GXA       0.602100
     26 O3         -54.3320    29.5050    -3.7160 o          1 GXA      -0.588100
     27 C22        -49.7550    28.6850    -1.9660 ca         1 GXA       0.094100
     28 C23        -50.2960    29.9810    -1.7960 ca         1 GXA      -0.095500
     29 C24        -51.6780    30.1480    -1.5950 ca         1 GXA      -0.085000
     30 O4         -48.4080    28.4390    -2.1670 os         1 GXA      -0.404100
     31 C25        -47.3990    29.4670    -2.2280 c3         1 GXA       0.503000
     32 F1         -47.6180    30.3360    -3.2410 f          1 GXA      -0.108333
     33 F2         -47.3240    30.1760    -1.0780 f          1 GXA      -0.108333
     34 F3         -46.1790    28.9240    -2.4350 f          1 GXA      -0.108333
     35 H9         -59.0170    35.2090    -1.7300 hn         1 GXA       0.324000
     36 H10        -59.0860    33.4700    -1.9960 hn         1 GXA       0.324000
     37 H4         -66.0870    35.7550    -7.6470 h1         1 GXA       0.055367
     38 H3         -66.7270    34.5600    -8.8130 h1         1 GXA       0.055367
     39 H5         -67.3940    34.6370    -7.1540 h1         1 GXA       0.055367
     40 H7         -62.7830    30.3740    -5.5920 ha         1 GXA       0.137000
     41 H12        -57.3510    31.2170    -4.0130 hc         1 GXA       0.066200
     42 H13        -58.6370    30.2770    -4.7600 hc         1 GXA       0.066200
     43 H23        -50.2070    26.5750    -2.0610 ha         1 GXA       0.136000
     44 H8         -60.9620    29.9290    -4.0460 ha         1 GXA       0.117000
     45 H21        -54.2590    30.1060    -0.7470 hc         1 GXA       0.066200
     46 H20        -54.4450    28.4200    -0.7110 hc         1 GXA       0.066200
     47 H19        -57.2870    31.3970    -1.3500 hc         1 GXA       0.066200
     48 H18        -58.5460    30.5710    -0.4320 hc         1 GXA       0.066200
     49 H1         -64.4610    34.8640    -5.7230 h4         1 GXA       0.163000
     50 H2         -65.9260    32.0690    -8.5940 h5         1 GXA       0.056100
     51 H6         -62.4510    34.6020    -4.8050 ha         1 GXA       0.140000
     52 H11        -59.5600    29.6870    -2.4850 h1         1 GXA       0.050700
     53 H15        -57.7770    28.1830    -3.7310 h1         1 GXA       0.061450
     54 H14        -56.5170    28.9690    -4.6850 h1         1 GXA       0.061450
     55 H17        -57.7120    28.3530    -1.1950 h1         1 GXA       0.061450
     56 H16        -56.4260    29.2710    -0.4110 h1         1 GXA       0.061450
     57 H24        -49.6690    30.8670    -1.8150 ha         1 GXA       0.136000
     58 H25        -52.0840    31.1490    -1.4670 ha         1 GXA       0.120000
     59 O2         -59.5790    31.7690    -2.6220 os         1 GXA      -0.386100
     60 C4         -66.4840    34.7380    -7.7580 c3         1 GXA       0.061900
     61 H22        -52.6470    26.8710    -1.7080 ha         1 GXA       0.120000
@<TRIPOS>BOND
     1     1    19 1   
     2     1    35 1   
     3     1    36 1   
     4     2    15 1   
     5     2    16 2   
     6     3     4 ar  
     7     3     9 ar  
     8     3    40 1   
     9     4    15 1   
    10     4    17 ar  
    11     5     9 ar  
    12     5    18 ar  
    13     5    59 1   
    14     6    21 1   
    15     6    22 1   
    16     6    41 1   
    17     6    42 1   
    18     7     8 ar  
    19     7    12 ar  
    20     7    61 1   
    21     8    27 ar  
    22     8    43 1   
    23     9    44 1   
    24    10    12 1   
    25    10    25 1   
    26    10    45 1   
    27    10    46 1   
    28    11    21 1   
    29    11    24 1   
    30    11    47 1   
    31    11    48 1   
    32    12    29 ar  
    33    13    14 1   
    34    13    16 1   
    35    13    60 1   
    36    14    15 2   
    37    14    49 1   
    38    16    50 1   
    39    17    18 ar  
    40    17    51 1   
    41    18    19 1   
    42    19    20 2   
    43    21    52 1   
    44    21    59 1   
    45    22    23 1   
    46    22    53 1   
    47    22    54 1   
    48    23    24 1   
    49    23    25 1   
    50    24    55 1   
    51    24    56 1   
    52    25    26 2   
    53    27    28 ar  
    54    27    30 1   
    55    28    29 ar  
    56    28    57 1   
    57    29    58 1   
    58    30    31 1   
    59    31    32 1   
    60    31    33 1   
    61    31    34 1   
    62    37    60 1   
    63    38    60 1   
    64    39    60 1   
@<TRIPOS>SUBSTRUCTURE
     1 GXA         1 TEMP              0 ****  ****    0 ROOT
