@<TRIPOS>MOLECULE
GXA
   61    64     1     0     0
SMALL
abcg2


@<TRIPOS>ATOM
      1 N3         -59.1300    34.2580    -2.2640 nt         1 GXA      -0.600000
      2 N2         -64.4780    31.9260    -6.7720 nc         1 GXA      -0.676000
      3 C7         -62.2100    31.2430    -5.0620 ca         1 GXA      -0.029000
      4 C6         -62.6410    32.5640    -5.2140 ca         1 GXA      -0.134500
      5 C9         -60.4560    31.9210    -3.5410 ca         1 GXA       0.169100
      6 C13        -57.8640    30.2470    -3.9460 c6         1 GXA      -0.115900
      7 C20        -51.9570    27.9190    -1.6040 ca         1 GXA      -0.085000
      8 C21        -50.5720    27.9850    -1.6970 ca         1 GXA      -0.095500
      9 C8         -61.1390    30.9270    -4.2430 ca         1 GXA      -0.208000
     10 C18        -54.2150    28.9890    -1.2720 c3         1 GXA      -0.108100
     11 C16        -57.9400    30.2850    -1.4380 c6         1 GXA      -0.115900
     12 C19        -52.7180    29.0660    -1.3810 ca         1 GXA      -0.056300
     13 N1         -65.3660    33.9040    -7.2170 na         1 GXA      -0.174500
     14 C1         -64.3240    34.1290    -6.3530 cd         1 GXA      -0.203000
     15 C2         -63.7750    32.8940    -6.0790 cc         1 GXA       0.293500
     16 C3         -65.4180    32.5660    -7.4370 cd         1 GXA       0.395400
     17 C5         -61.9470    33.5470    -4.5120 ca         1 GXA      -0.030000
     18 C10        -60.8630    33.2660    -3.6820 ca         1 GXA      -0.180600
     19 C11        -60.2240    34.4580    -3.0190 c          1 GXA       0.618700
     20 O1         -60.6940    35.5900    -3.1790 o          1 GXA      -0.635100
     21 C12        -58.7560    30.3690    -2.7170 c6         1 GXA       0.183300
     22 C14        -57.0280    28.9690    -3.8690 c6         1 GXA       0.100000
     23 N4         -56.2700    28.9250    -2.6200 n          1 GXA      -0.421800
     24 C15        -57.1140    28.9970    -1.4300 c6         1 GXA       0.100000
     25 C17        -54.9170    28.9720    -2.6320 c          1 GXA       0.602100
     26 O3         -54.2700    28.9900    -3.6810 o          1 GXA      -0.588100
     27 C22        -49.9560    29.2170    -1.5620 ca         1 GXA       0.094100
     28 C23        -50.6780    30.3750    -1.3320 ca         1 GXA      -0.095500
     29 C24        -52.0630    30.2890    -1.2480 ca         1 GXA      -0.085000
     30 O4         -48.5420    29.2700    -1.5650 os         1 GXA      -0.404100
     31 C25        -47.9250    29.5910    -2.7130 c3         1 GXA       0.503000
     32 F1         -48.1890    28.7270    -3.7130 f          1 GXA      -0.108333
     33 F2         -48.2570    30.8160    -3.1700 f          1 GXA      -0.108333
     34 F3         -46.6080    29.5780    -2.4890 f          1 GXA      -0.108333
     35 H9         -58.6970    35.0550    -1.8260 hn         1 GXA       0.324000
     36 H10        -58.7560    33.3330    -2.1260 hn         1 GXA       0.324000
     37 H4         -65.9150    35.8930    -7.4630 h1         1 GXA       0.055367
     38 H3         -66.2270    34.8630    -8.8720 h1         1 GXA       0.055367
     39 H5         -67.2750    34.7530    -7.4400 h1         1 GXA       0.055367
     40 H7         -62.7220    30.4520    -5.5920 ha         1 GXA       0.137000
     41 H12        -57.2030    31.1160    -3.9850 hc         1 GXA       0.066200
     42 H13        -58.4590    30.2350    -4.8590 hc         1 GXA       0.066200
     43 H23        -49.9770    27.0960    -1.8610 ha         1 GXA       0.136000
     44 H8         -60.8410    29.8930    -4.1550 ha         1 GXA       0.117000
     45 H21        -54.5860    29.8380    -0.6950 hc         1 GXA       0.066200
     46 H20        -54.5030    28.0880    -0.7250 hc         1 GXA       0.066200
     47 H19        -57.2720    31.1480    -1.3750 hc         1 GXA       0.066200
     48 H18        -58.6020    30.3010    -0.5710 hc         1 GXA       0.066200
     49 H1         -64.0750    35.1230    -6.0230 h4         1 GXA       0.163000
     50 H2         -66.1550    32.1190    -8.0860 h5         1 GXA       0.056100
     51 H6         -62.2360    34.5850    -4.5970 ha         1 GXA       0.140000
     52 H11        -59.5000    29.5690    -2.7070 h1         1 GXA       0.050700
     53 H15        -57.6810    28.0910    -3.9060 h1         1 GXA       0.061450
     54 H14        -56.3300    28.9130    -4.6980 h1         1 GXA       0.061450
     55 H17        -57.7810    28.1290    -1.4330 h1         1 GXA       0.061450
     56 H16        -56.5130    28.9410    -0.5300 h1         1 GXA       0.061450
     57 H24        -50.1670    31.3200    -1.2110 ha         1 GXA       0.136000
     58 H25        -52.6390    31.1880    -1.0640 ha         1 GXA       0.120000
     59 O2         -59.4280    31.6450    -2.6910 os         1 GXA      -0.386100
     60 C4         -66.2530    34.9110    -7.7840 c3         1 GXA       0.061900
     61 H22        -52.4500    26.9590    -1.7010 ha         1 GXA       0.120000
@<TRIPOS>BOND
     1     1    19 1   
     2     1    35 1   
     3     1    36 1   
     4     2    15 1   
     5     2    16 2   
     6     3     4 ar  
     7     3     9 ar  
     8     3    40 1   
     9     4    15 1   
    10     4    17 ar  
    11     5     9 ar  
    12     5    18 ar  
    13     5    59 1   
    14     6    21 1   
    15     6    22 1   
    16     6    41 1   
    17     6    42 1   
    18     7     8 ar  
    19     7    12 ar  
    20     7    61 1   
    21     8    27 ar  
    22     8    43 1   
    23     9    44 1   
    24    10    12 1   
    25    10    25 1   
    26    10    45 1   
    27    10    46 1   
    28    11    21 1   
    29    11    24 1   
    30    11    47 1   
    31    11    48 1   
    32    12    29 ar  
    33    13    14 1   
    34    13    16 1   
    35    13    60 1   
    36    14    15 2   
    37    14    49 1   
    38    16    50 1   
    39    17    18 ar  
    40    17    51 1   
    41    18    19 1   
    42    19    20 2   
    43    21    52 1   
    44    21    59 1   
    45    22    23 1   
    46    22    53 1   
    47    22    54 1   
    48    23    24 1   
    49    23    25 1   
    50    24    55 1   
    51    24    56 1   
    52    25    26 2   
    53    27    28 ar  
    54    27    30 1   
    55    28    29 ar  
    56    28    57 1   
    57    29    58 1   
    58    30    31 1   
    59    31    32 1   
    60    31    33 1   
    61    31    34 1   
    62    37    60 1   
    63    38    60 1   
    64    39    60 1   
@<TRIPOS>SUBSTRUCTURE
     1 GXA         1 TEMP              0 ****  ****    0 ROOT
