@<TRIPOS>MOLECULE
GXC
   57    58     1     0     0
SMALL
bcc


@<TRIPOS>ATOM
      1 C10         -5.1230    -1.5400    13.2880 ca         1 GXC      -0.261500
      2 C13         -3.7720     0.3920    10.5070 c3         1 GXC      -0.078400
      3 C17         -1.5130     2.8570    13.2130 ca         1 GXC      -0.218000
      4 C20          0.8660     1.6780    13.9880 ca         1 GXC      -0.088000
      5 C21          0.1150     1.0780    12.9860 ca         1 GXC      -0.118300
      6 C22          0.6190    -0.1640    12.3030 c3         1 GXC       0.011900
      7 C28          4.0320     0.0740     8.9940 c          1 GXC       0.700100
      8 C01         -1.8780    -1.5820    14.6570 c3         1 GXC      -0.083100
      9 C02         -3.2130    -0.8520    14.7860 c3         1 GXC      -0.131700
     10 C03         -4.3730    -1.7340    14.4270 ca         1 GXC       0.514600
     11 N04         -4.6390    -2.7340    15.2780 nb         1 GXC      -0.806000
     12 C05         -5.6560    -3.5300    14.9720 ca         1 GXC       0.930900
     13 N06         -5.8920    -4.5810    15.7990 nv         1 GXC      -0.938500
     14 N07         -6.4590    -3.4160    13.9120 nb         1 GXC      -0.850000
     15 C08         -6.2020    -2.4250    13.0680 ca         1 GXC       0.728200
     16 N09         -6.9880    -2.2980    11.9800 nv         1 GXC      -0.954500
     17 O11         -4.8940    -0.5240    12.4040 os         1 GXC      -0.333900
     18 C12         -4.0240    -0.8590    11.3230 c3         1 GXC       0.127400
     19 C14         -3.0830     1.4990    11.2790 c3         1 GXC       0.143400
     20 O15         -1.7890     1.0420    11.6390 os         1 GXC      -0.333900
     21 C16         -1.0950     1.6760    12.6040 ca         1 GXC       0.154100
     22 C18         -0.7410     3.4330    14.2160 ca         1 GXC      -0.087000
     23 C19          0.4490     2.8480    14.6120 ca         1 GXC      -0.165000
     24 C23          1.3800     0.2250    11.0350 c3         1 GXC      -0.201600
     25 S24          1.9440    -1.2220    10.1480 s6         1 GXC       1.229600
     26 O25          0.8130    -1.8740     9.5110 o          1 GXC      -0.592800
     27 O26          2.8160    -2.0030    11.0040 o          1 GXC      -0.592800
     28 N27          2.8270    -0.5860     8.8690 ns         1 GXC      -0.663300
     29 C29          4.6160     0.5110     7.6810 c3         1 GXC      -0.183100
     30 O30          4.5390     0.2780    10.0720 o          1 GXC      -0.547100
     31 H132        -3.1770     0.1200     9.6320 hc         1 GXC       0.059200
     32 H131        -4.7200     0.7820    10.1270 hc         1 GXC       0.059200
     33 H171        -2.4330     3.3420    12.9170 ha         1 GXC       0.136000
     34 H201         1.7980     1.2120    14.2860 ha         1 GXC       0.136000
     35 H221         1.2880    -0.6980    12.9780 hc         1 GXC       0.066700
     36 H222        -0.2020    -0.8390    12.0590 hc         1 GXC       0.066700
     37 H012        -1.0560    -0.9320    14.9560 hc         1 GXC       0.038367
     38 H011        -1.8530    -2.4710    15.2870 hc         1 GXC       0.038367
     39 H013        -1.6950    -1.8940    13.6280 hc         1 GXC       0.038367
     40 H021        -3.3450    -0.5260    15.8210 hc         1 GXC       0.059700
     41 H022        -3.2070     0.0480    14.1720 hc         1 GXC       0.059700
     42 H062        -5.4810    -4.5480    16.7160 hn         1 GXC       0.429800
     43 H061        -6.7910    -5.0280    15.7400 hn         1 GXC       0.429800
     44 H092        -7.8400    -2.8310    11.9510 hn         1 GXC       0.434300
     45 H091        -6.9840    -1.4350    11.4630 hn         1 GXC       0.434300
     46 H121        -3.0850    -1.2690    11.7080 h1         1 GXC       0.043200
     47 H122        -4.4810    -1.6280    10.6910 h1         1 GXC       0.043200
     48 H142        -3.0060     2.4020    10.6630 h1         1 GXC       0.042200
     49 H141        -3.6650     1.7580    12.1680 h1         1 GXC       0.042200
     50 H181        -1.0820     4.3480    14.6820 ha         1 GXC       0.130000
     51 H191         1.0500     3.2920    15.3940 ha         1 GXC       0.136000
     52 H232         0.7560     0.7840    10.3360 h1         1 GXC       0.105700
     53 H231         2.2600     0.8210    11.2780 h1         1 GXC       0.105700
     54 H271         2.3990    -0.6970     7.9570 hn         1 GXC       0.345500
     55 H291         5.5720     1.0010     7.8430 hc         1 GXC       0.069367
     56 H293         4.7580    -0.3420     7.0170 hc         1 GXC       0.069367
     57 H292         3.9410     1.2060     7.1800 hc         1 GXC       0.069367
@<TRIPOS>BOND
     1     1    10 ar  
     2     1    15 ar  
     3     1    17 1   
     4     2    18 1   
     5     2    19 1   
     6     2    31 1   
     7     2    32 1   
     8     3    21 ar  
     9     3    22 ar  
    10     3    33 1   
    11     4     5 ar  
    12     4    23 ar  
    13     4    34 1   
    14     5     6 1   
    15     5    21 ar  
    16     6    24 1   
    17     6    35 1   
    18     6    36 1   
    19     7    28 1   
    20     7    29 1   
    21     7    30 2   
    22     8     9 1   
    23     8    37 1   
    24     8    38 1   
    25     8    39 1   
    26     9    10 1   
    27     9    40 1   
    28     9    41 1   
    29    10    11 ar  
    30    11    12 ar  
    31    12    13 1   
    32    12    14 ar  
    33    13    42 1   
    34    13    43 1   
    35    14    15 ar  
    36    15    16 1   
    37    16    44 1   
    38    16    45 1   
    39    17    18 1   
    40    18    46 1   
    41    18    47 1   
    42    19    20 1   
    43    19    48 1   
    44    19    49 1   
    45    20    21 1   
    46    22    23 ar  
    47    22    50 1   
    48    23    51 1   
    49    24    25 1   
    50    24    52 1   
    51    24    53 1   
    52    25    26 2   
    53    25    27 2   
    54    25    28 1   
    55    28    54 1   
    56    29    55 1   
    57    29    56 1   
    58    29    57 1   
@<TRIPOS>SUBSTRUCTURE
     1 GXC         1 TEMP              0 ****  ****    0 ROOT
