@<TRIPOS>MOLECULE
GXC
   57    58     1     0     0
SMALL
No Charge or Current Charge


@<TRIPOS>ATOM
      1 C10         -5.0480    -1.6900    13.0770 ca         1 GXC      -0.130900
      2 C13         -3.5700     0.6410    10.5750 c3         1 GXC      -0.078400
      3 C17         -1.2600     2.9460    13.5370 ca         1 GXC      -0.200000
      4 C20          1.1890     1.7480    14.2170 ca         1 GXC      -0.070000
      5 C21          0.3710     1.1490    13.2370 ca         1 GXC      -0.118300
      6 C22          0.8280    -0.1410    12.5620 c3         1 GXC       0.011900
      7 C28          3.6990    -0.1640     8.6050 c          1 GXC       0.633100
      8 C01         -2.3810    -0.7010    14.9920 c3         1 GXC      -0.083100
      9 C02         -3.9100    -0.5200    15.0730 c3         1 GXC      -0.131700
     10 C03         -4.6680    -1.6820    14.4390 ca         1 GXC       0.186300
     11 N04         -4.9460    -2.7300    15.2440 nb         1 GXC      -0.280000
     12 C05         -5.6010    -3.7550    14.6830 ca         1 GXC       0.404900
     13 N06         -5.8810    -4.7990    15.4940 nv         1 GXC      -1.048900
     14 N07         -6.0240    -3.8680    13.4200 nb         1 GXC      -0.324000
     15 C08         -5.7450    -2.8330    12.6200 ca         1 GXC       0.399900
     16 N09         -6.2300    -2.9510    11.3540 nv         1 GXC      -1.064900
     17 O11         -4.7590    -0.6110    12.2590 os         1 GXC      -0.357100
     18 C12         -3.8210    -0.7570    11.1780 c3         1 GXC       0.150600
     19 C14         -2.9440     1.6430    11.5670 c3         1 GXC       0.166600
     20 O15         -1.6480     1.1440    11.9350 os         1 GXC      -0.357100
     21 C16         -0.8610     1.7530    12.8940 ca         1 GXC       0.154100
     22 C18         -0.4380     3.5320    14.5140 ca         1 GXC      -0.069000
     23 C19          0.7850     2.9330    14.8520 ca         1 GXC      -0.147000
     24 C23          1.4360     0.1340    11.1680 c3         1 GXC      -0.312400
     25 S24          1.9510    -1.3630    10.3140 s6         1 GXC       1.198800
     26 O25          0.7570    -2.1610    10.0210 o          1 GXC      -0.522000
     27 O26          3.0700    -1.9570    11.0520 o          1 GXC      -0.522000
     28 N27          2.5210    -0.7900     8.8540 ns         1 GXC      -0.596300
     29 C29          3.9530     0.1370     7.1360 c3         1 GXC      -0.183100
     30 O30          4.4880     0.1530     9.4790 o          1 GXC      -0.547100
     31 H132        -2.9130     0.5430     9.7030 hc         1 GXC       0.059200
     32 H131        -4.5200     1.0480    10.2080 hc         1 GXC       0.059200
     33 H171        -2.2000     3.4330    13.2940 ha         1 GXC       0.118000
     34 H201         2.1400     1.2940    14.4870 ha         1 GXC       0.118000
     35 H221         1.5690    -0.6560    13.1890 hc         1 GXC       0.066700
     36 H222        -0.0170    -0.8350    12.4670 hc         1 GXC       0.066700
     37 H012        -1.8670     0.1710    15.4130 hc         1 GXC       0.038367
     38 H011        -2.0660    -1.5910    15.5500 hc         1 GXC       0.038367
     39 H013        -2.0630    -0.8190    13.9500 hc         1 GXC       0.038367
     40 H021        -4.1980    -0.4070    16.1250 hc         1 GXC       0.059700
     41 H022        -4.1820     0.4240    14.5850 hc         1 GXC       0.059700
     42 H062        -5.7840    -4.6700    16.4980 hn         1 GXC       0.485000
     43 H061        -6.5590    -5.4890    15.1820 hn         1 GXC       0.485000
     44 H092        -6.9230    -3.6750    11.1790 hn         1 GXC       0.489500
     45 H091        -6.3150    -2.1020    10.8040 hn         1 GXC       0.489500
     46 H121        -2.8740    -1.1770    11.5410 h1         1 GXC       0.043200
     47 H122        -4.2130    -1.4230    10.3990 h1         1 GXC       0.043200
     48 H142        -2.8570     2.6260    11.0880 h1         1 GXC       0.042200
     49 H141        -3.5920     1.7410    12.4480 h1         1 GXC       0.042200
     50 H181        -0.7480     4.4510    15.0070 ha         1 GXC       0.112000
     51 H191         1.4220     3.3880    15.6080 ha         1 GXC       0.118000
     52 H232         0.7020     0.6190    10.5160 h1         1 GXC       0.105700
     53 H231         2.3270     0.7650    11.2510 h1         1 GXC       0.105700
     54 H271         1.9090    -1.0240     8.0910 hn         1 GXC       0.345500
     55 H291         4.9060     0.6530     6.9700 hc         1 GXC       0.069367
     56 H293         3.8930    -0.7960     6.5640 hc         1 GXC       0.069367
     57 H292         3.1090     0.7110     6.7380 hc         1 GXC       0.069367
@<TRIPOS>BOND
     1     1    10 ar  
     2     1    15 ar  
     3     1    17 1   
     4     2    18 1   
     5     2    19 1   
     6     2    31 1   
     7     2    32 1   
     8     3    21 ar  
     9     3    22 ar  
    10     3    33 1   
    11     4     5 ar  
    12     4    23 ar  
    13     4    34 1   
    14     5     6 1   
    15     5    21 ar  
    16     6    24 1   
    17     6    35 1   
    18     6    36 1   
    19     7    28 1   
    20     7    29 1   
    21     7    30 2   
    22     8     9 1   
    23     8    37 1   
    24     8    38 1   
    25     8    39 1   
    26     9    10 1   
    27     9    40 1   
    28     9    41 1   
    29    10    11 ar  
    30    11    12 ar  
    31    12    13 1   
    32    12    14 ar  
    33    13    42 1   
    34    13    43 1   
    35    14    15 ar  
    36    15    16 1   
    37    16    44 1   
    38    16    45 1   
    39    17    18 1   
    40    18    46 1   
    41    18    47 1   
    42    19    20 1   
    43    19    48 1   
    44    19    49 1   
    45    20    21 1   
    46    22    23 ar  
    47    22    50 1   
    48    23    51 1   
    49    24    25 1   
    50    24    52 1   
    51    24    53 1   
    52    25    26 2   
    53    25    27 2   
    54    25    28 1   
    55    28    54 1   
    56    29    55 1   
    57    29    56 1   
    58    29    57 1   
@<TRIPOS>SUBSTRUCTURE
     1 GXC         1 TEMP              0 ****  ****    0 ROOT
