@<TRIPOS>MOLECULE
GXD
   21    21     1     0     0
SMALL
No Charge or Current Charge


@<TRIPOS>ATOM
      1 C10         -1.6590    -0.5570     0.2990 ca         1 GXD       0.149000
      2 C13         -3.1980     1.1860     1.0240 ca         1 GXD      -0.100000
      3 C15         -1.5240     1.6670    -0.6790 ca         1 GXD       0.149000
      4 C02          2.1010    -0.6110     1.3120 c          1 GXD       0.655000
      5 C04          2.1830    -0.7020    -0.3090 c          1 GXD       0.438100
      6 C06          1.4880     0.3890    -1.1280 c3         1 GXD      -0.291400
      7 C09         -1.0460     0.3430    -0.5960 ca         1 GXD      -0.133600
      8 C12         -2.7290    -0.1350     1.1060 ca         1 GXD      -0.116000
      9 C14         -2.5940     2.0850     0.1300 ca         1 GXD      -0.116000
     10 O01          1.3320     0.2020     1.8170 o          1 GXD      -0.689500
     11 O03          2.8130    -1.3600     1.9780 o          1 GXD      -0.689500
     12 O05          2.7690    -1.6190    -0.8890 o          1 GXD      -0.540100
     13 O08         -0.1020    -0.8580    -2.4040 o          1 GXD      -0.504100
     14 Cl1         -1.0950    -2.2210     0.4420 cl         1 GXD      -0.176500
     15 Cl2         -0.8180     2.8190    -1.8110 cl         1 GXD      -0.176500
     16 H1          -4.0270     1.5120     1.6500 ha         1 GXD       0.110000
     17 H2           1.3940     1.2840    -0.5050 hc         1 GXD       0.090200
     18 H3           2.0370     0.5480    -2.0610 hc         1 GXD       0.090200
     19 H4          -3.1940    -0.8340     1.7970 ha         1 GXD       0.124000
     20 H5          -2.9590     3.1070     0.0580 ha         1 GXD       0.124000
     21 C07          0.0900    -0.1090    -1.4550 c          1 GXD       0.603700
@<TRIPOS>BOND
     1     1     7 ar  
     2     1     8 ar  
     3     1    14 1   
     4     2     8 ar  
     5     2     9 ar  
     6     2    16 1   
     7     3     7 ar  
     8     3     9 ar  
     9     3    15 1   
    10     4     5 1   
    11     4    10 1   
    12     4    11 1   
    13     5     6 1   
    14     5    12 2   
    15     6    17 1   
    16     6    18 1   
    17     6    21 1   
    18     7    21 1   
    19     8    19 1   
    20     9    20 1   
    21    13    21 2   
@<TRIPOS>SUBSTRUCTURE
     1 GXD         1 TEMP              0 ****  ****    0 ROOT
