@<TRIPOS>MOLECULE
GXD
   21    21     1     0     0
SMALL
bcc


@<TRIPOS>ATOM
      1 C10         -1.9700    -0.6150     0.0840 ca         1 GXD       0.057400
      2 C13         -3.5950     1.0450     0.6520 ca         1 GXD      -0.118000
      3 C15         -1.6520     1.6410    -0.5930 ca         1 GXD       0.057400
      4 C02          3.2380    -0.4020     1.0650 c          1 GXD       0.865600
      5 C04          2.1210    -0.7770     0.0490 c          1 GXD       0.438100
      6 C06          1.3670     0.3970    -0.5660 c3         1 GXD      -0.291400
      7 C09         -1.1880     0.3320    -0.5670 ca         1 GXD      -0.133600
      8 C12         -3.1640    -0.2720     0.6990 ca         1 GXD      -0.134000
      9 C14         -2.8440     2.0130     0.0040 ca         1 GXD      -0.134000
     10 O01          3.6280     0.7750     1.0040 o          1 GXD      -0.794800
     11 O03          3.6110    -1.3210     1.8020 o          1 GXD      -0.794800
     12 O05          1.8990    -1.9190    -0.2580 o          1 GXD      -0.540100
     13 O08          0.0870    -0.6520    -2.2840 o          1 GXD      -0.504100
     14 CL1         -1.4340    -2.2560     0.1600 cl         1 GXD      -0.084900
     15 CL2         -0.7130     2.8380    -1.4210 cl         1 GXD      -0.084900
     16 H1          -4.5270     1.3200     1.1260 ha         1 GXD       0.128000
     17 H2           1.1840     1.1500     0.1990 hc         1 GXD       0.090200
     18 H3           2.0430     0.8550    -1.2960 hc         1 GXD       0.090200
     19 H4          -3.7490    -1.0240     1.2090 ha         1 GXD       0.142000
     20 H5          -3.1820     3.0390    -0.0390 ha         1 GXD       0.142000
     21 C07          0.1040    -0.0320    -1.2520 c          1 GXD       0.603700
@<TRIPOS>BOND
     1     1     7 ar  
     2     1     8 ar  
     3     1    14 1   
     4     2     8 ar  
     5     2     9 ar  
     6     2    16 1   
     7     3     7 ar  
     8     3     9 ar  
     9     3    15 1   
    10     4     5 1   
    11     4    10 1   
    12     4    11 1   
    13     5     6 1   
    14     5    12 2   
    15     6    17 1   
    16     6    18 1   
    17     6    21 1   
    18     7    21 1   
    19     8    19 1   
    20     9    20 1   
    21    13    21 2   
@<TRIPOS>SUBSTRUCTURE
     1 GXD         1 TEMP              0 ****  ****    0 ROOT
