@<TRIPOS>MOLECULE
GXE
   13    13     1     0     0
SMALL
abcg2


@<TRIPOS>ATOM
      1 SE           1.5910     0.3420     0.3800 sh         1 GXE      -0.299800
      2 C           -0.2960     0.1570     0.2000 ca         1 GXE      -0.014000
      3 C1          -0.9270    -1.0840     0.2350 ca         1 GXE      -0.106000
      4 C2          -2.3060    -1.1630     0.0930 ca         1 GXE      -0.100000
      5 C3          -3.0630    -0.0130    -0.0890 ca         1 GXE      -0.112000
      6 C4          -2.4310     1.2220    -0.1280 ca         1 GXE      -0.100000
      7 C5          -1.0530     1.3120     0.0180 ca         1 GXE      -0.106000
      8 H1           1.8420    -1.0540     0.6940 hs         1 GXE       0.250800
      9 H2          -0.3540    -1.9920     0.3740 ha         1 GXE       0.119000
     10 H3          -2.7870    -2.1320     0.1240 ha         1 GXE       0.115500
     11 H4          -4.1380    -0.0800    -0.1990 ha         1 GXE       0.116000
     12 H5          -3.0100     2.1250    -0.2690 ha         1 GXE       0.115500
     13 H6          -0.5820     2.2880    -0.0090 ha         1 GXE       0.119000
@<TRIPOS>BOND
     1     1     2 1   
     2     1     8 1   
     3     2     3 ar  
     4     2     7 ar  
     5     3     4 ar  
     6     3     9 1   
     7     4     5 ar  
     8     4    10 1   
     9     5     6 ar  
    10     5    11 1   
    11     6     7 ar  
    12     6    12 1   
    13     7    13 1   
@<TRIPOS>SUBSTRUCTURE
     1 GXE         1 TEMP              0 ****  ****    0 ROOT
