@<TRIPOS>MOLECULE
GXE
   13    13     1     0     0
SMALL
No Charge or Current Charge


@<TRIPOS>ATOM
      1 SE           1.5110     0.2920     0.3830 sh         1 GXE      -0.299800
      2 C           -0.2570     0.1670     0.2010 ca         1 GXE      -0.014000
      3 C1          -0.8950    -1.0880     0.2390 ca         1 GXE      -0.106000
      4 C2          -2.2910    -1.1800     0.0960 ca         1 GXE      -0.100000
      5 C3          -3.0580    -0.0170    -0.0870 ca         1 GXE      -0.112000
      6 C4          -2.4270     1.2380    -0.1260 ca         1 GXE      -0.100000
      7 C5          -1.0310     1.3270     0.0180 ca         1 GXE      -0.106000
      8 H1           1.7220    -1.0160     0.6720 hs         1 GXE       0.250800
      9 H2          -0.3100    -1.9930     0.3790 ha         1 GXE       0.119000
     10 H3          -2.7770    -2.1530     0.1260 ha         1 GXE       0.115500
     11 H4          -4.1380    -0.0880    -0.1980 ha         1 GXE       0.116000
     12 H5          -3.0180     2.1400    -0.2670 ha         1 GXE       0.115500
     13 H6          -0.5470     2.3010    -0.0130 ha         1 GXE       0.119000
@<TRIPOS>BOND
     1     1     2 1   
     2     1     8 1   
     3     2     3 ar  
     4     2     7 ar  
     5     3     4 ar  
     6     3     9 1   
     7     4     5 ar  
     8     4    10 1   
     9     5     6 ar  
    10     5    11 1   
    11     6     7 ar  
    12     6    12 1   
    13     7    13 1   
@<TRIPOS>SUBSTRUCTURE
     1 GXE         1 TEMP              0 ****  ****    0 ROOT
