@<TRIPOS>MOLECULE
GXF
   68    72     1     0     0
SMALL
No Charge or Current Charge


@<TRIPOS>ATOM
      1 N1          18.4280    20.7200    40.5380 nb         1 GXF      -0.301000
      2 C7          15.5040    12.6290    40.5320 c3         1 GXF       0.052600
      3 C8          13.4860    12.1570    38.5670 c3         1 GXF       0.073600
      4 N2          18.0140    18.7000    41.8060 nb         1 GXF      -0.215000
      5 C9          14.4110    11.7710    37.3920 c3         1 GXF      -0.117400
      6 O1          16.1140    14.2650    43.9090 oh         1 GXF      -0.709000
      7 C1          18.4680    19.9680    41.6640 ca         1 GXF       0.182900
      8 C5          16.7690    15.8130    41.4630 c5         1 GXF       0.320300
      9 C6          16.3090    13.5080    41.5270 c5         1 GXF       0.177300
     10 N3          16.7900    18.0550    38.5130 nc         1 GXF      -0.560100
     11 C4          16.5320    16.9000    39.1580 cd         1 GXF       0.408700
     12 C3          17.3800    18.8180    39.5150 ca         1 GXF      -0.101600
     13 C2          17.4700    18.1420    40.7060 ca         1 GXF       0.141500
     14 N4          16.9290    16.9000    40.5070 na         1 GXF      -0.282300
     15 C18          8.0070     7.4840    43.9080 ca         1 GXF       0.124000
     16 C17          7.9940     6.2480    43.2440 ca         1 GXF      -0.105000
     17 C16          8.4290     6.1630    41.9100 ca         1 GXF      -0.090500
     18 C19          8.4540     8.6350    43.2420 ca         1 GXF      -0.105000
     19 C20          8.8900     8.5490    41.9070 ca         1 GXF      -0.090500
     20 C15          8.8870     7.3110    41.2130 cp         1 GXF      -0.038000
     21 C14          9.3510     7.2200    39.7920 cp         1 GXF       0.003000
     22 C13         10.4180     8.0230    39.3170 ca         1 GXF      -0.165000
     23 C21          8.7370     6.3290    38.8760 ca         1 GXF      -0.133000
     24 C22          9.1670     6.2500    37.5410 ca         1 GXF      -0.072000
     25 C23         10.2260     7.0580    37.0970 ca         1 GXF      -0.167000
     26 C12         10.8570     7.9390    37.9850 ca         1 GXF       0.318000
     27 N6          11.9030     8.7330    37.5340 nu         1 GXF      -0.992200
     28 C11         13.1070     8.9510    38.0200 c2         1 GXF       0.817100
     29 N7          13.5830     8.1780    38.8670 n2         1 GXF      -0.879100
     30 N5          13.8820     9.3530    37.0300 nu         1 GXF      -0.896400
     31 C10         13.8170    10.7040    36.4460 c3         1 GXF       0.208800
     32 O           16.9900    14.5590    40.7910 os         1 GXF      -0.452000
     33 C24         15.4530    14.2190    42.6390 c5         1 GXF       0.113300
     34 C25         15.3450    15.6650    42.0830 c5         1 GXF       0.081300
     35 O2          15.0470    16.6070    43.1380 oh         1 GXF      -0.697000
     36 C           17.8770    20.1380    39.4630 ca         1 GXF       0.448900
     37 N           17.8380    20.8900    38.3300 nv         1 GXF      -1.064900
     38 H1          15.0120    11.8260    41.0950 h1         1 GXF       0.082700
     39 H2          16.2140    12.1600    39.8390 h1         1 GXF       0.082700
     40 H3          12.5130    12.4790    38.1730 h1         1 GXF       0.074200
     41 H4          13.3200    11.2990    39.2300 h1         1 GXF       0.074200
     42 H5          15.3830    11.4310    37.7660 hc         1 GXF       0.065200
     43 H6          14.6020    12.6750    36.8000 hc         1 GXF       0.065200
     44 H7          15.8570    15.1560    44.2600 ho         1 GXF       0.525000
     45 H8          18.9110    20.4290    42.5450 h5         1 GXF       0.047100
     46 H9          17.5210    15.9530    42.2500 h2         1 GXF       0.117700
     47 H10         17.0670    12.8660    41.9960 h1         1 GXF       0.092700
     48 H11         16.0620    16.0280    38.7180 h5         1 GXF       0.077800
     49 H13          8.4240     5.1940    41.4170 ha         1 GXF       0.123000
     50 H14          8.4600     9.5920    43.7570 ha         1 GXF       0.129500
     51 H15          9.2190     9.4550    41.4040 ha         1 GXF       0.123000
     52 H16         10.9110     8.7160    39.9910 ha         1 GXF       0.124000
     53 H17          7.9060     5.7060    39.1980 ha         1 GXF       0.120000
     54 H18          8.6770     5.5650    36.8510 ha         1 GXF       0.116000
     55 H19         10.5570     6.9930    36.0650 ha         1 GXF       0.116000
     56 H20         11.9740     8.8060    36.5290 hn         1 GXF       0.500000
     57 H21         12.7700     7.6930    39.2530 hn         1 GXF       0.401400
     58 H22         14.8160     8.9890    37.1750 hn         1 GXF       0.484000
     59 H23         14.4000    10.7140    35.5150 h1         1 GXF       0.057200
     60 H24         12.7840    10.9740    36.1830 h1         1 GXF       0.057200
     61 H25         14.4600    13.7580    42.7410 h1         1 GXF       0.060700
     62 H26         14.5800    15.7180    41.2950 h1         1 GXF       0.069700
     63 H27         14.8710    17.4820    42.7150 ho         1 GXF       0.516000
     64 H28         18.4610    21.6910    38.2690 hn         1 GXF       0.504500
     65 H29         17.6310    20.4040    37.4610 hn         1 GXF       0.504500
     66 S           14.2170    13.5480    39.5470 ss         1 GXF      -0.477000
     67 H12          7.6500     5.3570    43.7630 ha         1 GXF       0.129500
     68 Cl           7.4620     7.5910    45.5770 cl         1 GXF      -0.201000
@<TRIPOS>BOND
     1     1     7 ar  
     2     1    36 ar  
     3     2     9 1   
     4     2    38 1   
     5     2    39 1   
     6     2    66 1   
     7     3     5 1   
     8     3    40 1   
     9     3    41 1   
    10     3    66 1   
    11     4     7 ar  
    12     4    13 ar  
    13     5    31 1   
    14     5    42 1   
    15     5    43 1   
    16     6    33 1   
    17     6    44 1   
    18     7    45 1   
    19     8    14 1   
    20     8    32 1   
    21     8    34 1   
    22     8    46 1   
    23     9    32 1   
    24     9    33 1   
    25     9    47 1   
    26    10    11 2   
    27    10    12 1   
    28    11    14 1   
    29    11    48 1   
    30    12    13 ar  
    31    12    36 ar  
    32    13    14 1   
    33    15    16 ar  
    34    15    18 ar  
    35    15    68 1   
    36    16    17 ar  
    37    16    67 1   
    38    17    20 ar  
    39    17    49 1   
    40    18    19 ar  
    41    18    50 1   
    42    19    20 ar  
    43    19    51 1   
    44    20    21 1   
    45    21    22 ar  
    46    21    23 ar  
    47    22    26 ar  
    48    22    52 1   
    49    23    24 ar  
    50    23    53 1   
    51    24    25 ar  
    52    24    54 1   
    53    25    26 ar  
    54    25    55 1   
    55    26    27 1   
    56    27    28 1   
    57    27    56 1   
    58    28    29 2   
    59    28    30 1   
    60    29    57 1   
    61    30    31 1   
    62    30    58 1   
    63    31    59 1   
    64    31    60 1   
    65    33    34 1   
    66    33    61 1   
    67    34    35 1   
    68    34    62 1   
    69    35    63 1   
    70    36    37 1   
    71    37    64 1   
    72    37    65 1   
@<TRIPOS>SUBSTRUCTURE
     1 GXF         1 TEMP              0 ****  ****    0 ROOT
