@<TRIPOS>MOLECULE
GXF
   68    72     1     0     0
SMALL
abcg2


@<TRIPOS>ATOM
      1 N1          18.5150    18.5560    39.4190 nb         1 GXF      -0.301000
      2 C7          13.9860    11.9410    41.3140 c3         1 GXF       0.052600
      3 C8          12.9360    12.0950    38.7280 c3         1 GXF       0.073600
      4 N2          17.9300    16.9460    41.0820 nb         1 GXF      -0.215000
      5 C9          14.2180    12.4220    37.9810 c3         1 GXF      -0.117400
      6 O1          15.1410    13.6740    44.3100 oh         1 GXF      -0.709000
      7 C1          18.6990    17.8800    40.5490 ca         1 GXF       0.182900
      8 C5          15.7290    14.9340    41.6900 c5         1 GXF       0.320300
      9 C6          14.9660    12.7830    42.1090 c5         1 GXF       0.177300
     10 N3          15.3550    16.8260    38.6360 nc         1 GXF      -0.560100
     11 C4          14.9780    15.9420    39.5090 cd         1 GXF       0.408700
     12 C3          16.5320    17.3230    39.1360 ca         1 GXF      -0.101600
     13 C2          16.8560    16.7070    40.3340 ca         1 GXF       0.141500
     14 N4          15.8420    15.8210    40.5660 na         1 GXF      -0.282300
     15 C18          9.7910     8.6820    43.8250 ca         1 GXF       0.124000
     16 C17          9.2650     7.5880    43.1560 ca         1 GXF      -0.105000
     17 C16          9.4250     7.4940    41.7820 ca         1 GXF      -0.090500
     18 C19         10.4680     9.6780    43.1390 ca         1 GXF      -0.105000
     19 C20         10.6200     9.5690    41.7660 ca         1 GXF      -0.090500
     20 C15         10.1060     8.4770    41.0650 cp         1 GXF      -0.038000
     21 C14         10.2710     8.3770    39.6010 cp         1 GXF       0.003000
     22 C13         11.4860     8.7330    39.0220 ca         1 GXF      -0.165000
     23 C21          9.2160     7.9650    38.7880 ca         1 GXF      -0.133000
     24 C22          9.3850     7.9360    37.4110 ca         1 GXF      -0.072000
     25 C23         10.5880     8.3060    36.8340 ca         1 GXF      -0.167000
     26 C12         11.6550     8.7150    37.6360 ca         1 GXF       0.318000
     27 N6          12.8220     9.1540    37.0240 nu         1 GXF      -0.992200
     28 C11         14.0840     9.2240    37.5910 c2         1 GXF       0.817100
     29 N7          14.5470     8.4630    38.5090 n2         1 GXF      -0.879100
     30 N5          14.8820    10.1920    37.0340 nu         1 GXF      -0.896400
     31 C10         14.4320    11.5450    36.7430 c3         1 GXF       0.208800
     32 O           15.7420    13.6080    41.2420 os         1 GXF      -0.452000
     33 C24         14.3410    13.7120    43.1570 c5         1 GXF       0.113300
     34 C25         14.4300    15.0820    42.4770 c5         1 GXF       0.081300
     35 O2          14.5240    16.1660    43.3530 oh         1 GXF      -0.697000
     36 C           17.4300    18.3040    38.6780 ca         1 GXF       0.448900
     37 N           17.2340    18.9950    37.5530 nv         1 GXF      -1.064900
     38 H1          13.4590    11.2830    42.0070 h1         1 GXF       0.082700
     39 H2          14.5340    11.2980    40.6220 h1         1 GXF       0.082700
     40 H3          12.0640    12.4140    38.1540 h1         1 GXF       0.074200
     41 H4          12.8220    11.0280    38.8990 h1         1 GXF       0.074200
     42 H5          15.0860    12.3160    38.6380 hc         1 GXF       0.065200
     43 H6          14.1930    13.4690    37.6690 hc         1 GXF       0.065200
     44 H7          14.9710    14.4770    44.8160 ho         1 GXF       0.525000
     45 H8          19.5980    18.1310    41.1020 h5         1 GXF       0.047100
     46 H9          16.5850    15.1530    42.3390 h2         1 GXF       0.117700
     47 H10         15.6310    12.0800    42.6240 h1         1 GXF       0.092700
     48 H11         14.0850    15.3360    39.4420 h5         1 GXF       0.077800
     49 H13          9.0250     6.6290    41.2690 ha         1 GXF       0.123000
     50 H14         10.8670    10.5360    43.6630 ha         1 GXF       0.129500
     51 H15         11.1260    10.3680    41.2360 ha         1 GXF       0.123000
     52 H16         12.3020     9.0310    39.6670 ha         1 GXF       0.124000
     53 H17          8.2610     7.7000    39.2220 ha         1 GXF       0.120000
     54 H18          8.5650     7.6280    36.7760 ha         1 GXF       0.116000
     55 H19         10.7020     8.2840    35.7560 ha         1 GXF       0.116000
     56 H20         12.7420     9.4280    36.0560 hn         1 GXF       0.500000
     57 H21         13.9230     7.6880    38.6990 hn         1 GXF       0.401400
     58 H22         15.8130    10.1600    37.4230 hn         1 GXF       0.484000
     59 H23         15.1980    12.0010    36.1160 h1         1 GXF       0.057200
     60 H24         13.5250    11.5170    36.1370 h1         1 GXF       0.057200
     61 H25         13.3020    13.4330    43.3790 h1         1 GXF       0.060700
     62 H26         13.5880    15.1910    41.7820 h1         1 GXF       0.069700
     63 H27         13.6390    16.4840    43.5570 ho         1 GXF       0.516000
     64 H28         17.9400    19.6300    37.2220 hn         1 GXF       0.504500
     65 H29         16.4710    18.7730    36.9370 hn         1 GXF       0.504500
     66 S           12.7720    12.8980    40.3500 ss         1 GXF      -0.477000
     67 H12          8.7410     6.8110    43.6970 ha         1 GXF       0.129500
     68 CL           9.5960     8.8090    45.5420 cl         1 GXF      -0.201000
@<TRIPOS>BOND
     1     1     7 ar  
     2     1    36 ar  
     3     2     9 1   
     4     2    38 1   
     5     2    39 1   
     6     2    66 1   
     7     3     5 1   
     8     3    40 1   
     9     3    41 1   
    10     3    66 1   
    11     4     7 ar  
    12     4    13 ar  
    13     5    31 1   
    14     5    42 1   
    15     5    43 1   
    16     6    33 1   
    17     6    44 1   
    18     7    45 1   
    19     8    14 1   
    20     8    32 1   
    21     8    34 1   
    22     8    46 1   
    23     9    32 1   
    24     9    33 1   
    25     9    47 1   
    26    10    11 2   
    27    10    12 1   
    28    11    14 1   
    29    11    48 1   
    30    12    13 ar  
    31    12    36 ar  
    32    13    14 1   
    33    15    16 ar  
    34    15    18 ar  
    35    15    68 1   
    36    16    17 ar  
    37    16    67 1   
    38    17    20 ar  
    39    17    49 1   
    40    18    19 ar  
    41    18    50 1   
    42    19    20 ar  
    43    19    51 1   
    44    20    21 1   
    45    21    22 ar  
    46    21    23 ar  
    47    22    26 ar  
    48    22    52 1   
    49    23    24 ar  
    50    23    53 1   
    51    24    25 ar  
    52    24    54 1   
    53    25    26 ar  
    54    25    55 1   
    55    26    27 1   
    56    27    28 1   
    57    27    56 1   
    58    28    29 2   
    59    28    30 1   
    60    29    57 1   
    61    30    31 1   
    62    30    58 1   
    63    31    59 1   
    64    31    60 1   
    65    33    34 1   
    66    33    61 1   
    67    34    35 1   
    68    34    62 1   
    69    35    63 1   
    70    36    37 1   
    71    37    64 1   
    72    37    65 1   
@<TRIPOS>SUBSTRUCTURE
     1 GXF         1 TEMP              0 ****  ****    0 ROOT
