@<TRIPOS>MOLECULE
GXG
   21    21     1     0     0
SMALL
bcc


@<TRIPOS>ATOM
      1 C10         -1.8410     1.4380     0.2340 ca         1 GXG       0.198400
      2 C13         -4.0880     0.7700    -0.1380 ca         1 GXG      -0.075000
      3 C15         -2.3600    -0.8550     0.0260 ca         1 GXG       0.198400
      4 C02          3.6170    -0.0280     0.2040 c          1 GXG       0.867600
      5 C04          2.3140    -0.3770    -0.5680 c          1 GXG       0.446100
      6 C06          1.0950     0.5000    -0.3440 c3         1 GXG      -0.291400
      7 C09         -1.3890     0.1240     0.2210 ca         1 GXG      -0.239600
      8 C12         -3.1660     1.7840     0.0690 ca         1 GXG      -0.210000
      9 C14         -3.6940    -0.5590    -0.1660 ca         1 GXG      -0.210000
     10 F11         -0.9490     2.4130     0.4430 f          1 GXG      -0.122400
     11 F16         -1.9790    -2.1330    -0.0190 f          1 GXG      -0.122400
     12 O01          4.5160    -0.8750     0.1350 o          1 GXG      -0.796800
     13 O03          3.6100     1.0650     0.7950 o          1 GXG      -0.796800
     14 O05          2.2660    -1.3100    -1.3290 o          1 GXG      -0.548100
     15 O08          0.3340    -1.1480     1.1850 o          1 GXG      -0.489100
     16 H1          -5.1310     1.0190    -0.2780 ha         1 GXG       0.127000
     17 H2           1.3740     1.3900     0.2230 hc         1 GXG       0.083200
     18 H3           0.6970     0.8340    -1.3050 hc         1 GXG       0.083200
     19 H4          -3.4660     2.8220     0.1020 ha         1 GXG       0.147000
     20 H5          -4.4090    -1.3530    -0.3340 ha         1 GXG       0.147000
     21 C07          0.0440    -0.2510     0.4300 c          1 GXG       0.605700
@<TRIPOS>BOND
     1     1     7 ar  
     2     1     8 ar  
     3     1    10 1   
     4     2     8 ar  
     5     2     9 ar  
     6     2    16 1   
     7     3     7 ar  
     8     3     9 ar  
     9     3    11 1   
    10     4     5 1   
    11     4    12 1   
    12     4    13 1   
    13     5     6 1   
    14     5    14 2   
    15     6    17 1   
    16     6    18 1   
    17     6    21 1   
    18     7    21 1   
    19     8    19 1   
    20     9    20 1   
    21    15    21 2   
@<TRIPOS>SUBSTRUCTURE
     1 GXG         1 TEMP              0 ****  ****    0 ROOT
