@<TRIPOS>MOLECULE
GXG
   21    21     1     0     0
SMALL
No Charge or Current Charge


@<TRIPOS>ATOM
      1 C10         -1.9450     1.6050     0.1830 ca         1 GXG       0.233500
      2 C13         -3.9830     0.4140    -0.4130 ca         1 GXG      -0.057000
      3 C15         -1.9830    -0.8170     0.2260 ca         1 GXG       0.233500
      4 C02          3.2680    -0.7470    -0.0630 c          1 GXG       0.657000
      5 C04          1.9100    -0.1770    -0.7450 c          1 GXG       0.446100
      6 C06          1.1940     0.9830    -0.0560 c3         1 GXG      -0.291400
      7 C09         -1.2810     0.3870     0.4070 ca         1 GXG      -0.239600
      8 C12         -3.2880     1.6200    -0.2260 ca         1 GXG      -0.192000
      9 C14         -3.3260    -0.8060    -0.1840 ca         1 GXG      -0.192000
     10 F11         -1.3070     2.7790     0.3830 f          1 GXG      -0.157500
     11 F16         -1.3670    -2.0030     0.4270 f          1 GXG      -0.157500
     12 O01          3.5200    -1.9450    -0.1730 o          1 GXG      -0.691500
     13 O03          4.0070     0.0400     0.5250 o          1 GXG      -0.691500
     14 O05          1.4320    -0.6640    -1.7720 o          1 GXG      -0.548100
     15 O08          0.4620    -0.1410     1.9120 o          1 GXG      -0.489100
     16 H1          -5.0250     0.4250    -0.7300 ha         1 GXG       0.109000
     17 H2           1.8960     1.5300     0.5810 hc         1 GXG       0.083200
     18 H3           0.7130     1.6010    -0.8210 hc         1 GXG       0.083200
     19 H4          -3.7910     2.5700    -0.3930 ha         1 GXG       0.129000
     20 H5          -3.8540    -1.7450    -0.3260 ha         1 GXG       0.129000
     21 C07          0.1430     0.3620     0.8440 c          1 GXG       0.605700
@<TRIPOS>BOND
     1     1     7 ar  
     2     1     8 ar  
     3     1    10 1   
     4     2     8 ar  
     5     2     9 ar  
     6     2    16 1   
     7     3     7 ar  
     8     3     9 ar  
     9     3    11 1   
    10     4     5 1   
    11     4    12 1   
    12     4    13 1   
    13     5     6 1   
    14     5    14 2   
    15     6    17 1   
    16     6    18 1   
    17     6    21 1   
    18     7    21 1   
    19     8    19 1   
    20     9    20 1   
    21    15    21 2   
@<TRIPOS>SUBSTRUCTURE
     1 GXG         1 TEMP              0 ****  ****    0 ROOT
