@<TRIPOS>MOLECULE
GXH
   69    73     1     0     0
SMALL
bcc


@<TRIPOS>ATOM
      1 C10          6.2260    -0.2990     0.8730 c3         1 GXH      -0.007100
      2 C15          1.2190    -0.5210     1.1140 ca         1 GXH       0.558200
      3 C17         -1.1540    -0.3710     0.7700 ca         1 GXH       0.066000
      4 C21         -2.3190     0.1900     0.0920 cc         1 GXH      -0.122400
      5 C22         -3.4770    -0.3920    -0.3410 cd         1 GXH       0.480800
      6 C24         -3.9870     1.6840    -0.8590 cc         1 GXH       0.679300
      7 C28         -7.0220     2.2440    -1.0690 ca         1 GXH       0.128600
      8 C01         10.6450     0.4560    -3.3000 c3         1 GXH       0.125700
      9 C03          9.0190     0.5140    -1.5780 ca         1 GXH       0.107100
     10 C04          9.3500     1.8060    -1.2040 ca         1 GXH      -0.178000
     11 C05          8.6730     2.4210    -0.1500 ca         1 GXH      -0.178000
     12 C06          7.6680     1.7560     0.5340 ca         1 GXH       0.105100
     13 C08          7.2790     3.5990     1.9810 c3         1 GXH       0.124700
     14 C09          7.3260     0.4440     0.1650 ca         1 GXH      -0.079300
     15 C11          4.8480     0.1660     0.4120 c3         1 GXH      -0.160400
     16 C12          3.7150    -0.5850     1.0810 c          1 GXH       0.675100
     17 C16          0.1290     0.0230     0.4240 ca         1 GXH      -0.303300
     18 C18         -1.2920    -1.3000     1.8080 ca         1 GXH      -0.267300
     19 C19         -0.1490    -1.7760     2.4130 ca         1 GXH       0.437200
     20 C29         -7.0730     2.6660     0.2580 ca         1 GXH      -0.158000
     21 C30         -8.2050     2.4160     1.0200 ca         1 GXH      -0.103500
     22 C31         -9.2980     1.7490     0.4820 ca         1 GXH      -0.153000
     23 C32         -9.2430     1.3310    -0.8420 ca         1 GXH      -0.103500
     24 C33         -8.1180     1.5710    -1.6130 ca         1 GXH      -0.158000
     25 C34         -3.8050    -1.8240    -0.3240 ca         1 GXH      -0.151500
     26 C35         -5.1230    -2.2200    -0.0930 ca         1 GXH      -0.072000
     27 C36         -5.4740    -3.5600    -0.0800 ca         1 GXH      -0.179500
     28 C37         -4.4910    -4.5030    -0.3150 ca         1 GXH       0.145900
     29 C39         -3.1800    -4.1490    -0.5710 ca         1 GXH      -0.179500
     30 C40         -2.8450    -2.8040    -0.5770 ca         1 GXH      -0.072000
     31 C41          8.0060    -0.1510    -0.8820 ca         1 GXH      -0.126000
     32 F38         -4.8240    -5.8020    -0.3060 f          1 GXH      -0.141900
     33 N14          2.4850    -0.0870     0.7410 ns         1 GXH      -0.569400
     34 N20          1.0870    -1.4030     2.0880 nb         1 GXH      -0.673000
     35 N23         -4.4090     0.4610    -0.8660 nd         1 GXH      -0.727000
     36 N26         -4.7220     2.7390    -1.2900 nu         1 GXH      -0.631700
     37 N27         -5.9300     2.5230    -1.8950 nu         1 GXH      -0.443400
     38 O02          9.6080    -0.1760    -2.5810 os         1 GXH      -0.316900
     39 O07          6.9680     2.2880     1.5630 os         1 GXH      -0.320900
     40 O13          3.8890    -1.5270     1.8230 o          1 GXH      -0.528100
     41 S25         -2.3950     1.9070    -0.2050 ss         1 GXH      -0.225300
     42 H1           6.3350    -1.3660     0.6730 hc         1 GXH       0.068200
     43 H2           6.3160    -0.1720     1.9530 hc         1 GXH       0.068200
     44 H3          10.3000     1.3610    -3.8090 h1         1 GXH       0.039367
     45 H4          11.4900     0.7190    -2.6560 h1         1 GXH       0.039367
     46 H5          10.9850    -0.2550    -4.0490 h1         1 GXH       0.039367
     47 H6          10.1270     2.3660    -1.7070 ha         1 GXH       0.135000
     48 H7           8.9580     3.4310     0.1130 ha         1 GXH       0.134000
     49 H8           8.3120     3.6860     2.3280 h1         1 GXH       0.039033
     50 H9           7.1120     4.3330     1.1880 h1         1 GXH       0.039033
     51 H10          6.6130     3.8270     2.8100 h1         1 GXH       0.039033
     52 H11          4.7230     1.2350     0.5980 hc         1 GXH       0.063200
     53 H12          4.7540     0.0350    -0.6710 hc         1 GXH       0.063200
     54 H13          0.2950     0.7250    -0.3850 ha         1 GXH       0.140000
     55 H14         -2.2650    -1.6290     2.1430 ha         1 GXH       0.154000
     56 H15         -0.2290    -2.4950     3.2200 h4         1 GXH       0.026100
     57 H16         -6.2330     3.1880     0.6970 ha         1 GXH       0.135000
     58 H17         -8.2290     2.7490     2.0500 ha         1 GXH       0.129500
     59 H18        -10.1750     1.5560     1.0850 ha         1 GXH       0.133000
     60 H19        -10.0820     0.8060    -1.2810 ha         1 GXH       0.129500
     61 H20         -8.0860     1.2340    -2.6430 ha         1 GXH       0.135000
     62 H21         -5.8830    -1.4700     0.0810 ha         1 GXH       0.148500
     63 H22         -6.4950    -3.8650     0.1090 ha         1 GXH       0.152500
     64 H23         -2.4350    -4.9070    -0.7730 ha         1 GXH       0.152500
     65 H24         -1.8260    -2.5230    -0.8040 ha         1 GXH       0.148500
     66 H25          7.7490    -1.1650    -1.1700 ha         1 GXH       0.148000
     67 H26          2.4910     0.6680     0.0720 hn         1 GXH       0.315500
     68 H27         -4.2750     3.6190    -1.4920 hn         1 GXH       0.478800
     69 H28         -5.8650     1.9190    -2.7050 hn         1 GXH       0.405800
@<TRIPOS>BOND
     1     1    14 1   
     2     1    15 1   
     3     1    42 1   
     4     1    43 1   
     5     2    17 ar  
     6     2    33 1   
     7     2    34 ar  
     8     3     4 1   
     9     3    17 ar  
    10     3    18 ar  
    11     4     5 2   
    12     4    41 1   
    13     5    25 1   
    14     5    35 1   
    15     6    35 2   
    16     6    36 1   
    17     6    41 1   
    18     7    20 ar  
    19     7    24 ar  
    20     7    37 1   
    21     8    38 1   
    22     8    44 1   
    23     8    45 1   
    24     8    46 1   
    25     9    10 ar  
    26     9    31 ar  
    27     9    38 1   
    28    10    11 ar  
    29    10    47 1   
    30    11    12 ar  
    31    11    48 1   
    32    12    14 ar  
    33    12    39 1   
    34    13    39 1   
    35    13    49 1   
    36    13    50 1   
    37    13    51 1   
    38    14    31 ar  
    39    15    16 1   
    40    15    52 1   
    41    15    53 1   
    42    16    33 1   
    43    16    40 2   
    44    17    54 1   
    45    18    19 ar  
    46    18    55 1   
    47    19    34 ar  
    48    19    56 1   
    49    20    21 ar  
    50    20    57 1   
    51    21    22 ar  
    52    21    58 1   
    53    22    23 ar  
    54    22    59 1   
    55    23    24 ar  
    56    23    60 1   
    57    24    61 1   
    58    25    26 ar  
    59    25    30 ar  
    60    26    27 ar  
    61    26    62 1   
    62    27    28 ar  
    63    27    63 1   
    64    28    29 ar  
    65    28    32 1   
    66    29    30 ar  
    67    29    64 1   
    68    30    65 1   
    69    31    66 1   
    70    33    67 1   
    71    36    37 1   
    72    36    68 1   
    73    37    69 1   
@<TRIPOS>SUBSTRUCTURE
     1 GXH         1 TEMP              0 ****  ****    0 ROOT
