@<TRIPOS>MOLECULE
GXH
   69    73     1     0     0
SMALL
No Charge or Current Charge


@<TRIPOS>ATOM
      1 C10          6.0660    -0.3120     0.5970 c3         1 GXH      -0.007100
      2 C15          1.3990    -0.9150     0.5660 ca         1 GXH       0.492900
      3 C17         -0.9970    -0.5920     0.5970 ca         1 GXH       0.066000
      4 C21         -2.2000     0.0710     0.1110 cc         1 GXH      -0.202000
      5 C22         -3.3740    -0.5980    -0.2140 cd         1 GXH       0.415500
      6 C24         -4.0720     1.5100    -0.2560 cc         1 GXH       0.679300
      7 C28         -7.4670     2.5730    -0.3370 ca         1 GXH       0.267000
      8 C01         11.8740     0.4330    -1.6030 c3         1 GXH       0.148900
      9 C03          9.5600     0.5280    -0.7460 ca         1 GXH       0.107100
     10 C04          9.5150     1.9370    -0.8070 ca         1 GXH      -0.160000
     11 C05          8.3510     2.6220    -0.4140 ca         1 GXH      -0.160000
     12 C06          7.2210     1.9080     0.0460 ca         1 GXH       0.105100
     13 C08          5.9180     3.9820     0.3940 c3         1 GXH       0.147900
     14 C09          7.2680     0.4960     0.1110 ca         1 GXH      -0.079300
     15 C11          5.0370    -0.5550    -0.5290 c3         1 GXH      -0.160400
     16 C12          3.8200    -1.3290    -0.0140 c          1 GXH       0.608100
     17 C16          0.2600    -0.2660     0.0700 ca         1 GXH      -0.220000
     18 C18         -1.0430    -1.5320     1.6390 ca         1 GXH      -0.184000
     19 C19          0.1510    -2.1130     2.0930 ca         1 GXH       0.371900
     20 C29         -7.5190     3.5530     0.6770 ca         1 GXH      -0.140000
     21 C30         -8.7050     3.7660     1.4020 ca         1 GXH      -0.085500
     22 C31         -9.8490     3.0010     1.1170 ca         1 GXH      -0.135000
     23 C32         -9.8080     2.0280     0.1050 ca         1 GXH      -0.085500
     24 C33         -8.6200     1.8170    -0.6190 ca         1 GXH      -0.140000
     25 C34         -3.5700    -2.0560    -0.4520 ca         1 GXH      -0.151500
     26 C35         -4.8800    -2.5970    -0.4420 ca         1 GXH      -0.054000
     27 C36         -5.1010    -3.9630    -0.6950 ca         1 GXH      -0.161500
     28 C37         -4.0200    -4.8030    -0.9870 ca         1 GXH       0.181000
     29 C39         -2.7220    -4.2830    -1.0440 ca         1 GXH      -0.161500
     30 C40         -2.4980    -2.9190    -0.7900 ca         1 GXH      -0.054000
     31 C41          8.4380    -0.1800    -0.2890 ca         1 GXH      -0.108000
     32 F38         -4.2330    -6.1140    -1.2350 f          1 GXH      -0.177000
     33 N14          2.6740    -0.5710     0.1010 ns         1 GXH      -0.335900
     34 N20          1.3600    -1.8080     1.5740 nb         1 GXH      -0.673000
     35 N23         -4.4470     0.2580    -0.4380 nd         1 GXH      -0.727000
     36 N26         -4.9940     2.5320    -0.4220 nu         1 GXH      -0.686900
     37 N27         -6.2980     2.3400    -1.0860 nu         1 GXH      -0.637000
     38 O02         10.6730    -0.1970    -1.1210 os         1 GXH      -0.340100
     39 O07          6.0600     2.5510     0.4350 os         1 GXH      -0.344100
     40 O13          3.8750    -2.5300     0.2200 o          1 GXH      -0.528100
     41 S25         -2.4000     1.7960     0.1390 ss         1 GXH      -0.080400
     42 H1           6.3970    -1.2790     0.9970 hc         1 GXH       0.068200
     43 H2           5.5760     0.2010     1.4340 hc         1 GXH       0.068200
     44 H3          11.6710     1.0120    -2.5140 h1         1 GXH       0.039367
     45 H4          12.2940     1.1050    -0.8440 h1         1 GXH       0.039367
     46 H5          12.6300    -0.3240    -1.8430 h1         1 GXH       0.039367
     47 H6          10.3660     2.5150    -1.1560 ha         1 GXH       0.117000
     48 H7           8.3460     3.7060    -0.4750 ha         1 GXH       0.116000
     49 H8           6.6600     4.4670     1.0420 h1         1 GXH       0.039033
     50 H9           6.0430     4.3580    -0.6300 h1         1 GXH       0.039033
     51 H10          4.9200     4.2750     0.7440 h1         1 GXH       0.039033
     52 H11          4.7220     0.4170    -0.9260 hc         1 GXH       0.063200
     53 H12          5.5200    -1.1400    -1.3200 hc         1 GXH       0.063200
     54 H13          0.3550     0.4740    -0.7190 ha         1 GXH       0.122000
     55 H14         -1.9860    -1.8080     2.1010 ha         1 GXH       0.136000
     56 H15          0.1390    -2.8410     2.9040 h4         1 GXH       0.026100
     57 H16         -6.6440     4.1550     0.9020 ha         1 GXH       0.117000
     58 H17         -8.7370     4.5230     2.1830 ha         1 GXH       0.111500
     59 H18        -10.7670     3.1650     1.6780 ha         1 GXH       0.115000
     60 H19        -10.6940     1.4370    -0.1180 ha         1 GXH       0.111500
     61 H20         -8.5980     1.0630    -1.4010 ha         1 GXH       0.117000
     62 H21         -5.7370    -1.9660    -0.2170 ha         1 GXH       0.130500
     63 H22         -6.1090    -4.3670    -0.6670 ha         1 GXH       0.134500
     64 H23         -1.8900    -4.9350    -1.2980 ha         1 GXH       0.134500
     65 H24         -1.4850    -2.5430    -0.8970 ha         1 GXH       0.130500
     66 H25          8.4800    -1.2660    -0.2470 ha         1 GXH       0.130000
     67 H26          2.7600     0.3900    -0.1990 hn         1 GXH       0.149000
     68 H27         -4.4940     3.3950    -0.6730 hn         1 GXH       0.534000
     69 H28         -6.3550     1.4590    -1.6200 hn         1 GXH       0.461000
@<TRIPOS>BOND
     1     1    14 1   
     2     1    15 1   
     3     1    42 1   
     4     1    43 1   
     5     2    17 ar  
     6     2    33 1   
     7     2    34 ar  
     8     3     4 1   
     9     3    17 ar  
    10     3    18 ar  
    11     4     5 2   
    12     4    41 1   
    13     5    25 1   
    14     5    35 1   
    15     6    35 2   
    16     6    36 1   
    17     6    41 1   
    18     7    20 ar  
    19     7    24 ar  
    20     7    37 1   
    21     8    38 1   
    22     8    44 1   
    23     8    45 1   
    24     8    46 1   
    25     9    10 ar  
    26     9    31 ar  
    27     9    38 1   
    28    10    11 ar  
    29    10    47 1   
    30    11    12 ar  
    31    11    48 1   
    32    12    14 ar  
    33    12    39 1   
    34    13    39 1   
    35    13    49 1   
    36    13    50 1   
    37    13    51 1   
    38    14    31 ar  
    39    15    16 1   
    40    15    52 1   
    41    15    53 1   
    42    16    33 1   
    43    16    40 2   
    44    17    54 1   
    45    18    19 ar  
    46    18    55 1   
    47    19    34 ar  
    48    19    56 1   
    49    20    21 ar  
    50    20    57 1   
    51    21    22 ar  
    52    21    58 1   
    53    22    23 ar  
    54    22    59 1   
    55    23    24 ar  
    56    23    60 1   
    57    24    61 1   
    58    25    26 ar  
    59    25    30 ar  
    60    26    27 ar  
    61    26    62 1   
    62    27    28 ar  
    63    27    63 1   
    64    28    29 ar  
    65    28    32 1   
    66    29    30 ar  
    67    29    64 1   
    68    30    65 1   
    69    31    66 1   
    70    33    67 1   
    71    36    37 1   
    72    36    68 1   
    73    37    69 1   
@<TRIPOS>SUBSTRUCTURE
     1 GXH         1 TEMP              0 ****  ****    0 ROOT
