@<TRIPOS>MOLECULE
GXI
   35    37     1     0     0
SMALL
No Charge or Current Charge


@<TRIPOS>ATOM
      1 C12         19.2960    67.2920    42.8660 c3         1 GXI       0.217100
      2 C13         18.0340    65.3550    43.8710 ca         1 GXI       0.215000
      3 C01         13.8780    66.7060    42.6540 ca         1 GXI      -0.173000
      4 C02         13.2410    66.5350    41.4180 ca         1 GXI       0.207000
      5 C03         13.9900    66.2630    40.2660 ca         1 GXI      -0.153000
      6 C04         15.3900    66.1520    40.3340 ca         1 GXI       0.076000
      7 C05         16.0360    66.3120    41.5860 ca         1 GXI      -0.183000
      8 C06         15.2750    66.5980    42.7420 ca         1 GXI      -0.030000
      9 C08         17.4440    65.8130    39.3570 ca         1 GXI       0.276000
     10 C10         17.4480    66.1870    41.6130 ca         1 GXI       0.421900
     11 C14         17.4250    64.0990    43.6480 ca         1 GXI      -0.076000
     12 C15         17.2390    63.1820    44.7000 ca         1 GXI      -0.164500
     13 C16         17.6630    63.5090    46.0040 ca         1 GXI       0.146100
     14 C17         18.2690    64.7510    46.2380 ca         1 GXI      -0.164500
     15 C18         18.4540    65.6660    45.1840 ca         1 GXI      -0.076000
     16 C20         16.8960    61.3580    46.9420 c3         1 GXI       0.145900
     17 N07         16.1070    65.9010    39.2220 nb         1 GXI      -0.196000
     18 N09         18.1500    65.9410    40.4920 nb         1 GXI      -0.280000
     19 N11         18.2110    66.2780    42.8010 nh         1 GXI      -0.787100
     20 O19         17.5070    62.6540    47.0760 os         1 GXI      -0.336100
     21 Cl1         18.3620    65.4890    37.8950 cl         1 GXI      -0.139000
     22 H1          20.2430    66.8250    43.1670 h1         1 GXI       0.051033
     23 H2          19.4600    67.7650    41.8880 h1         1 GXI       0.051033
     24 H3          19.0410    68.0870    43.5790 h1         1 GXI       0.051033
     25 H4          13.2890    66.9250    43.5410 ha         1 GXI       0.136000
     26 H5          13.4800    66.1400    39.3140 ha         1 GXI       0.155000
     27 H6          15.7550    66.7460    43.7070 ha         1 GXI       0.131000
     28 H7          17.0970    63.8180    42.6510 ha         1 GXI       0.128000
     29 H8          16.7670    62.2280    44.4820 ha         1 GXI       0.130000
     30 H9          18.5960    65.0090    47.2420 ha         1 GXI       0.130000
     31 H10         18.9160    66.6230    45.4040 ha         1 GXI       0.128000
     32 H11         16.8720    60.8470    47.9120 h1         1 GXI       0.044700
     33 H12         15.8630    61.4490    46.5810 h1         1 GXI       0.044700
     34 H13         17.4610    60.7310    46.2410 h1         1 GXI       0.044700
     35 F22         11.8970    66.6400    41.3360 f          1 GXI      -0.170000
@<TRIPOS>BOND
     1     1    19 1   
     2     1    22 1   
     3     1    23 1   
     4     1    24 1   
     5     2    11 ar  
     6     2    15 ar  
     7     2    19 1   
     8     3     4 ar  
     9     3     8 ar  
    10     3    25 1   
    11     4     5 ar  
    12     4    35 1   
    13     5     6 ar  
    14     5    26 1   
    15     6     7 ar  
    16     6    17 ar  
    17     7     8 ar  
    18     7    10 ar  
    19     8    27 1   
    20     9    17 ar  
    21     9    18 ar  
    22     9    21 1   
    23    10    18 ar  
    24    10    19 1   
    25    11    12 ar  
    26    11    28 1   
    27    12    13 ar  
    28    12    29 1   
    29    13    14 ar  
    30    13    20 1   
    31    14    15 ar  
    32    14    30 1   
    33    15    31 1   
    34    16    20 1   
    35    16    32 1   
    36    16    33 1   
    37    16    34 1   
@<TRIPOS>SUBSTRUCTURE
     1 GXI         1 TEMP              0 ****  ****    0 ROOT
