@<TRIPOS>MOLECULE
GXI
   35    37     1     0     0
SMALL
abcg2


@<TRIPOS>ATOM
      1 C12         19.7300    66.5440    42.5300 c3         1 GXI       0.217100
      2 C13         18.0060    65.3790    43.8040 ca         1 GXI       0.215000
      3 C01         13.9220    66.1230    42.8640 ca         1 GXI      -0.173000
      4 C02         13.2810    66.1520    41.6230 ca         1 GXI       0.207000
      5 C03         13.9640    66.2650    40.4470 ca         1 GXI      -0.153000
      6 C04         15.3670    66.3460    40.4840 ca         1 GXI       0.076000
      7 C05         16.0510    66.2620    41.7200 ca         1 GXI      -0.183000
      8 C06         15.2910    66.1770    42.9030 ca         1 GXI      -0.030000
      9 C08         17.2940    66.6890    39.4070 ca         1 GXI       0.276000
     10 C10         17.4920    66.3470    41.6380 ca         1 GXI       0.421900
     11 C14         17.6660    64.0500    43.6060 ca         1 GXI      -0.076000
     12 C15         17.3640    63.2250    44.6810 ca         1 GXI      -0.164500
     13 C16         17.4240    63.7280    45.9790 ca         1 GXI       0.146100
     14 C17         17.7910    65.0630    46.1790 ca         1 GXI      -0.164500
     15 C18         18.0760    65.8780    45.1020 ca         1 GXI      -0.076000
     16 C20         16.8030    61.6520    46.9410 c3         1 GXI       0.145900
     17 N07         16.0170    66.5440    39.3040 nb         1 GXI      -0.196000
     18 N09         18.0700    66.6080    40.4750 nb         1 GXI      -0.280000
     19 N11         18.3190    66.2150    42.6970 nh         1 GXI      -0.787100
     20 O19         17.1550    63.0140    47.0840 os         1 GXI      -0.336100
     21 CL1         18.1460    67.0090    37.9270 cl         1 GXI      -0.139000
     22 H1          20.1840    66.6070    43.5150 h1         1 GXI       0.051033
     23 H2          20.2590    65.7840    41.9510 h1         1 GXI       0.051033
     24 H3          19.8450    67.5040    42.0350 h1         1 GXI       0.051033
     25 H4          13.3430    66.0640    43.7760 ha         1 GXI       0.136000
     26 H5          13.4520    66.3150    39.4960 ha         1 GXI       0.155000
     27 H6          15.7680    66.1690    43.8700 ha         1 GXI       0.131000
     28 H7          17.6260    63.6450    42.6020 ha         1 GXI       0.128000
     29 H8          17.0960    62.1960    44.4850 ha         1 GXI       0.130000
     30 H9          17.8410    65.4560    47.1860 ha         1 GXI       0.130000
     31 H10         18.3410    66.9150    45.2680 ha         1 GXI       0.128000
     32 H11         16.6290    61.2710    47.9440 h1         1 GXI       0.044700
     33 H12         15.8900    61.5260    46.3540 h1         1 GXI       0.044700
     34 H13         17.6040    61.0690    46.4770 h1         1 GXI       0.044700
     35 F22         11.9470    66.0850    41.6020 f          1 GXI      -0.170000
@<TRIPOS>BOND
     1     1    19 1   
     2     1    22 1   
     3     1    23 1   
     4     1    24 1   
     5     2    11 ar  
     6     2    15 ar  
     7     2    19 1   
     8     3     4 ar  
     9     3     8 ar  
    10     3    25 1   
    11     4     5 ar  
    12     4    35 1   
    13     5     6 ar  
    14     5    26 1   
    15     6     7 ar  
    16     6    17 ar  
    17     7     8 ar  
    18     7    10 ar  
    19     8    27 1   
    20     9    17 ar  
    21     9    18 ar  
    22     9    21 1   
    23    10    18 ar  
    24    10    19 1   
    25    11    12 ar  
    26    11    28 1   
    27    12    13 ar  
    28    12    29 1   
    29    13    14 ar  
    30    13    20 1   
    31    14    15 ar  
    32    14    30 1   
    33    15    31 1   
    34    16    20 1   
    35    16    32 1   
    36    16    33 1   
    37    16    34 1   
@<TRIPOS>SUBSTRUCTURE
     1 GXI         1 TEMP              0 ****  ****    0 ROOT
