@<TRIPOS>MOLECULE
GXJ
   52    53     1     0     0
SMALL
No Charge or Current Charge


@<TRIPOS>ATOM
      1 C10         -2.0630     2.4900    15.2700 ca         1 GXJ       0.138100
      2 C13         -0.5780     3.6610    17.3600 ca         1 GXJ      -0.153000
      3 C15         -0.7280     2.0780    15.5050 ca         1 GXJ      -0.070300
      4 C17          0.9030     1.5720    13.5760 c3         1 GXJ      -0.188700
      5 C22         -6.0750    -2.7950    14.3320 ca         1 GXJ       0.392900
      6 C01         -2.8950    -0.5790    16.8870 c3         1 GXJ      -0.088100
      7 C03         -5.0460    -1.8000    16.2680 ca         1 GXJ       0.189300
      8 C04         -5.5300    -1.6440    14.9480 ca         1 GXJ      -0.120900
      9 O05         -5.4800    -0.4120    14.3190 os         1 GXJ      -0.355100
     10 C06         -4.5960    -0.2130    13.2010 c3         1 GXJ       0.150600
     11 C07         -4.6260     1.2850    12.8300 c3         1 GXJ      -0.072400
     12 C08         -4.1430     2.2160    13.9610 c3         1 GXJ       0.172600
     13 O09         -2.7710     1.8960    14.2420 os         1 GXJ      -0.333100
     14 C11         -2.6410     3.4890    16.0870 ca         1 GXJ      -0.208000
     15 C12         -1.8980     4.0700    17.1280 ca         1 GXJ      -0.101000
     16 C14          0.0050     2.6700    16.5530 ca         1 GXJ      -0.087000
     17 C16         -0.0560     0.9970    14.6540 c3         1 GXJ      -0.014100
     18 C18          0.1670     2.4360    12.5210 c3         1 GXJ      -0.060100
     19 C19          1.7190     0.4430    12.9040 c          1 GXJ       0.720000
     20 O20          2.9340     0.4560    13.0370 o          1 GXJ      -0.738000
     21 O21          1.1230    -0.4190    12.2740 o          1 GXJ      -0.738000
     22 N24         -6.1250    -3.9800    14.9480 nb         1 GXJ      -0.335000
     23 C25         -5.6270    -4.0100    16.1880 ca         1 GXJ       0.395900
     24 N26         -5.6730    -5.2090    16.8110 nv         1 GXJ      -1.055900
     25 N27         -5.0930    -2.9990    16.8870 nb         1 GXJ      -0.274000
     26 H131        -0.0030     4.1110    18.1660 ha         1 GXJ       0.099000
     27 H171         1.6150     2.2310    14.0900 hc         1 GXJ       0.026700
     28 H012        -2.4870     0.2800    17.4330 hc         1 GXJ       0.049367
     29 H011        -2.4190    -1.4880    17.2700 hc         1 GXJ       0.049367
     30 H013        -2.6300    -0.4720    15.8290 hc         1 GXJ       0.049367
     31 H021        -4.6610    -0.7540    18.1230 hc         1 GXJ       0.064200
     32 H022        -4.8640     0.3050    16.7450 hc         1 GXJ       0.064200
     33 H061        -3.5710    -0.5080    13.4610 h1         1 GXJ       0.047200
     34 H062        -4.9110    -0.8090    12.3350 h1         1 GXJ       0.047200
     35 H072        -4.0010     1.4460    11.9440 hc         1 GXJ       0.049200
     36 H071        -5.6480     1.5640    12.5500 hc         1 GXJ       0.049200
     37 H082        -4.2360     3.2610    13.6390 h1         1 GXJ       0.028700
     38 H081        -4.7690     2.0690    14.8510 h1         1 GXJ       0.028700
     39 H111        -3.6600     3.8270    15.9310 ha         1 GXJ       0.100000
     40 H121        -2.3480     4.8380    17.7540 ha         1 GXJ       0.092000
     41 H141         1.0300     2.3610    16.7420 ha         1 GXJ       0.117000
     42 H161         0.5190     0.3320    15.3110 hc         1 GXJ       0.055200
     43 H162        -0.7990     0.3510    14.1710 hc         1 GXJ       0.055200
     44 H181         0.8740     2.8050    11.7690 hc         1 GXJ       0.014367
     45 H182        -0.6080     1.8530    12.0080 hc         1 GXJ       0.014367
     46 H183        -0.3100     3.3050    12.9900 hc         1 GXJ       0.014367
     47 H231        -7.2130    -3.5720    12.8240 hn         1 GXJ       0.485500
     48 H232        -6.8870    -1.8790    12.6990 hn         1 GXJ       0.485500
     49 H261        -5.8660    -6.0350    16.2510 hn         1 GXJ       0.478500
     50 H262        -5.1210    -5.3410    17.6550 hn         1 GXJ       0.478500
     51 C02         -4.4260    -0.6510    17.0570 c3         1 GXJ      -0.139700
     52 N23         -6.6310    -2.7820    13.0900 nv         1 GXJ      -1.070900
@<TRIPOS>BOND
     1     1     3 ar  
     2     1    13 1   
     3     1    14 ar  
     4     2    15 ar  
     5     2    16 ar  
     6     2    26 1   
     7     3    16 ar  
     8     3    17 1   
     9     4    17 1   
    10     4    18 1   
    11     4    19 1   
    12     4    27 1   
    13     5     8 ar  
    14     5    22 ar  
    15     5    52 1   
    16     6    28 1   
    17     6    29 1   
    18     6    30 1   
    19     6    51 1   
    20     7     8 ar  
    21     7    25 ar  
    22     7    51 1   
    23     8     9 1   
    24     9    10 1   
    25    10    11 1   
    26    10    33 1   
    27    10    34 1   
    28    11    12 1   
    29    11    35 1   
    30    11    36 1   
    31    12    13 1   
    32    12    37 1   
    33    12    38 1   
    34    14    15 ar  
    35    14    39 1   
    36    15    40 1   
    37    16    41 1   
    38    17    42 1   
    39    17    43 1   
    40    18    44 1   
    41    18    45 1   
    42    18    46 1   
    43    19    20 1   
    44    19    21 1   
    45    22    23 ar  
    46    23    24 1   
    47    23    25 ar  
    48    24    49 1   
    49    24    50 1   
    50    31    51 1   
    51    32    51 1   
    52    47    52 1   
    53    48    52 1   
@<TRIPOS>SUBSTRUCTURE
     1 GXJ         1 TEMP              0 ****  ****    0 ROOT
