@<TRIPOS>MOLECULE
GXJ
   52    53     1     0     0
SMALL
bcc


@<TRIPOS>ATOM
      1 C10         -2.3440     2.8760    15.1710 ca         1 GXJ       0.138100
      2 C13         -1.1600     4.5480    17.0620 ca         1 GXJ      -0.171000
      3 C15         -1.0730     2.5530    15.6710 ca         1 GXJ      -0.070300
      4 C17          0.7950     1.6710    14.1980 c3         1 GXJ      -0.188700
      5 C22         -6.5100    -2.3560    14.8190 ca         1 GXJ       0.721200
      6 C01         -1.9270    -2.2360    15.6610 c3         1 GXJ      -0.088100
      7 C03         -4.4170    -2.2160    15.9460 ca         1 GXJ       0.517600
      8 C04         -5.3440    -1.6170    15.1210 ca         1 GXJ      -0.251500
      9 O05         -5.2070    -0.3590    14.6070 os         1 GXJ      -0.331900
     10 C06         -4.4310    -0.2820    13.4130 c3         1 GXJ       0.127400
     11 C07         -4.5440     1.1150    12.8390 c3         1 GXJ      -0.072400
     12 C08         -4.1850     2.2340    13.7950 c3         1 GXJ       0.149400
     13 O09         -2.8630     2.0300    14.2560 os         1 GXJ      -0.309900
     14 C11         -3.0070     4.0190    15.6150 ca         1 GXJ      -0.226000
     15 C12         -2.4130     4.8510    16.5560 ca         1 GXJ      -0.119000
     16 C14         -0.5100     3.4050    16.6140 ca         1 GXJ      -0.105000
     17 C16         -0.3060     1.3410    15.2120 c3         1 GXJ      -0.014100
     18 C18          0.2300     2.2820    12.9160 c3         1 GXJ      -0.060100
     19 C19          1.6810     0.4490    13.8480 c          1 GXJ       0.930600
     20 O20          2.7120     0.7000    13.1900 o          1 GXJ      -0.843300
     21 O21          1.3040    -0.6790    14.2260 o          1 GXJ      -0.843300
     22 N24         -6.7000    -3.5720    15.3160 nb         1 GXJ      -0.861000
     23 C25         -5.7420    -4.0580    16.1060 ca         1 GXJ       0.921900
     24 N26         -5.9680    -5.2830    16.6480 nv         1 GXJ      -0.945500
     25 N27         -4.6150    -3.4440    16.4450 nb         1 GXJ      -0.800000
     26 H131        -0.6930     5.1880    17.7990 ha         1 GXJ       0.117000
     27 H171         1.4530     2.4230    14.6540 hc         1 GXJ       0.026700
     28 H012        -0.9960    -1.7570    15.9600 hc         1 GXJ       0.049367
     29 H011        -1.8710    -3.2870    15.9430 hc         1 GXJ       0.049367
     30 H013        -1.9910    -2.1830    14.5730 hc         1 GXJ       0.049367
     31 H021        -3.0160    -1.6150    17.4080 hc         1 GXJ       0.064200
     32 H022        -3.1380    -0.4950    16.0660 hc         1 GXJ       0.064200
     33 H061        -3.3860    -0.5290    13.6280 h1         1 GXJ       0.047200
     34 H062        -4.7910    -1.0100    12.6770 h1         1 GXJ       0.047200
     35 H072        -3.9070     1.1630    11.9530 hc         1 GXJ       0.049200
     36 H071        -5.5660     1.2930    12.4950 hc         1 GXJ       0.049200
     37 H082        -4.2670     3.1930    13.2720 h1         1 GXJ       0.028700
     38 H081        -4.8830     2.2630    14.6380 h1         1 GXJ       0.028700
     39 H111        -3.9860     4.2770    15.2360 ha         1 GXJ       0.118000
     40 H121        -2.9410     5.7350    16.8900 ha         1 GXJ       0.110000
     41 H141         0.4670     3.1560    17.0140 ha         1 GXJ       0.135000
     42 H161         0.1530     0.8780    16.0890 hc         1 GXJ       0.055200
     43 H162        -0.9760     0.5920    14.7890 hc         1 GXJ       0.055200
     44 H181         1.0310     2.5420    12.2260 hc         1 GXJ       0.014367
     45 H182        -0.4390     1.5830    12.4080 hc         1 GXJ       0.014367
     46 H183        -0.3370     3.1920    13.1190 hc         1 GXJ       0.014367
     47 H231        -8.3380    -2.3200    13.9440 hn         1 GXJ       0.430300
     48 H232        -7.4460    -0.8680    13.7850 hn         1 GXJ       0.430300
     49 H261        -6.6670    -5.8620    16.2140 hn         1 GXJ       0.423300
     50 H262        -5.1760    -5.7710    17.0310 hn         1 GXJ       0.423300
     51 C02         -3.1230    -1.5540    16.3220 c3         1 GXJ      -0.139700
     52 N23         -7.4490    -1.8510    13.9960 nv         1 GXJ      -0.960500
@<TRIPOS>BOND
     1     1     3 ar  
     2     1    13 1   
     3     1    14 ar  
     4     2    15 ar  
     5     2    16 ar  
     6     2    26 1   
     7     3    16 ar  
     8     3    17 1   
     9     4    17 1   
    10     4    18 1   
    11     4    19 1   
    12     4    27 1   
    13     5     8 ar  
    14     5    22 ar  
    15     5    52 1   
    16     6    28 1   
    17     6    29 1   
    18     6    30 1   
    19     6    51 1   
    20     7     8 ar  
    21     7    25 ar  
    22     7    51 1   
    23     8     9 1   
    24     9    10 1   
    25    10    11 1   
    26    10    33 1   
    27    10    34 1   
    28    11    12 1   
    29    11    35 1   
    30    11    36 1   
    31    12    13 1   
    32    12    37 1   
    33    12    38 1   
    34    14    15 ar  
    35    14    39 1   
    36    15    40 1   
    37    16    41 1   
    38    17    42 1   
    39    17    43 1   
    40    18    44 1   
    41    18    45 1   
    42    18    46 1   
    43    19    20 1   
    44    19    21 1   
    45    22    23 ar  
    46    23    24 1   
    47    23    25 ar  
    48    24    49 1   
    49    24    50 1   
    50    31    51 1   
    51    32    51 1   
    52    47    52 1   
    53    48    52 1   
@<TRIPOS>SUBSTRUCTURE
     1 GXJ         1 TEMP              0 ****  ****    0 ROOT
