@<TRIPOS>MOLECULE
GXK
   39    43     1     0     0
SMALL
abcg2


@<TRIPOS>ATOM
      1 C2           1.2190     1.9500     0.2390 cc         1 GXK       0.467000
      2 C3           2.4900     1.3620     0.1580 cc         1 GXK      -0.329000
      3 C4           2.5610    -0.0070    -0.0540 cd         1 GXK       0.442000
      4 C6           5.0100    -0.1470    -0.0320 c3         1 GXK       0.253800
      5 C7           6.0460    -1.1600    -0.4200 cx         1 GXK      -0.157700
      6 C8           7.3790    -1.1330     0.2570 cx         1 GXK      -0.122400
      7 C12         -0.2880    -2.0530    -0.3810 cc         1 GXK      -0.056400
      8 C15         -3.1920    -1.3080     0.4390 ca         1 GXK      -0.036000
      9 C16         -4.5630    -0.9880     0.4060 ca         1 GXK      -0.150000
     10 C17         -5.7260    -1.5760     0.8970 cc         1 GXK      -0.195100
     11 C21         -4.0950     1.0590    -0.8700 ca         1 GXK      -0.087000
     12 CL1          1.1430     3.6540     0.5140 cl         1 GXK      -0.149000
     13 N5           3.6840    -0.7140    -0.1590 nu         1 GXK      -0.934200
     14 C9           6.4150    -2.2400     0.5540 cx         1 GXK      -0.122400
     15 C10          1.3100    -0.6840    -0.1670 cd         1 GXK      -0.175000
     16 N11          1.0600    -1.9620    -0.3510 nc         1 GXK      -0.279600
     17 C13         -0.8910    -0.8240    -0.2130 cd         1 GXK      -0.055300
     18 C14         -2.3040    -0.4600    -0.1780 ca         1 GXK      -0.036800
     19 N18         -6.7160    -0.7610     0.5310 na         1 GXK       0.015500
     20 N19         -6.3470     0.3130    -0.1520 nc         1 GXK      -0.284400
     21 C20         -5.0210     0.1940    -0.2410 ca         1 GXK      -0.062000
     22 C22         -2.7740     0.7250    -0.8320 ca         1 GXK      -0.069000
     23 N23          0.1580     0.0460    -0.0790 na         1 GXK       0.272900
     24 N24          0.0680     1.3660     0.1380 nd         1 GXK      -0.512800
     25 H1           3.3740     1.9720     0.2680 ha         1 GXK       0.144000
     26 H2           5.1830     0.1940     0.9950 h1         1 GXK       0.051200
     27 H3           5.0860     0.7340    -0.6770 h1         1 GXK       0.051200
     28 H4           6.0410    -1.4330    -1.4700 hc         1 GXK       0.090700
     29 H5           8.2540    -1.3590    -0.3390 hc         1 GXK       0.076450
     30 H6           7.5440    -0.3840     1.0220 hc         1 GXK       0.076450
     31 H7          -0.7900    -2.9950    -0.5410 h4         1 GXK       0.230000
     32 H8          -2.8450    -2.1990     0.9480 ha         1 GXK       0.117000
     33 H9          -5.9040    -2.4800     1.4550 h4         1 GXK       0.227000
     34 H10         -4.4280     1.9570    -1.3730 ha         1 GXK       0.128000
     35 H11          3.6010    -1.7160    -0.2350 hn         1 GXK       0.523000
     36 H12          5.9250    -2.2410     1.5200 hc         1 GXK       0.076450
     37 H13          6.6300    -3.2270     0.1640 hc         1 GXK       0.076450
     38 H14         -7.6960    -0.9010     0.7290 hn         1 GXK       0.370000
     39 H15         -2.0580     1.3700    -1.3220 ha         1 GXK       0.126000
@<TRIPOS>BOND
     1     1     2 1   
     2     1    12 1   
     3     1    24 2   
     4     2     3 2   
     5     2    25 1   
     6     3    13 1   
     7     3    15 1   
     8     4     5 1   
     9     4    13 1   
    10     4    26 1   
    11     4    27 1   
    12     5     6 1   
    13     5    14 1   
    14     5    28 1   
    15     6    14 1   
    16     6    29 1   
    17     6    30 1   
    18     7    16 1   
    19     7    17 2   
    20     7    31 1   
    21     8     9 ar  
    22     8    18 ar  
    23     8    32 1   
    24     9    10 2   
    25     9    21 ar  
    26    10    19 1   
    27    10    33 1   
    28    11    21 ar  
    29    11    22 ar  
    30    11    34 1   
    31    13    35 1   
    32    14    36 1   
    33    14    37 1   
    34    15    16 2   
    35    15    23 1   
    36    17    18 1   
    37    17    23 1   
    38    18    22 ar  
    39    19    20 1   
    40    19    38 1   
    41    20    21 2   
    42    22    39 1   
    43    23    24 1   
@<TRIPOS>SUBSTRUCTURE
     1 GXK         1 TEMP              0 ****  ****    0 ROOT
