@<TRIPOS>MOLECULE
GXK
   39    43     1     0     0
SMALL
No Charge or Current Charge


@<TRIPOS>ATOM
      1 C2           1.3760     2.1320    -0.2750 cc         1 GXK       0.467000
      2 C3           2.6280     1.4400    -0.3150 cc         1 GXK      -0.329000
      3 C4           2.6270     0.0800    -0.2730 cd         1 GXK       0.442000
      4 C6           5.1430    -0.2340    -0.2430 c3         1 GXK       0.253800
      5 C7           6.0810    -1.4310    -0.2660 cx         1 GXK      -0.157700
      6 C8           7.4940    -1.3120     0.2600 cx         1 GXK      -0.122400
      7 C12         -0.3300    -1.8590    -0.0650 cc         1 GXK      -0.056400
      8 C15         -3.3020    -1.3750     0.0800 ca         1 GXK      -0.036000
      9 C16         -4.6710    -1.0900     0.1400 ca         1 GXK      -0.150000
     10 C17         -5.7930    -1.9550     0.2380 cc         1 GXK      -0.195100
     11 C21         -4.2970     1.2670     0.0130 ca         1 GXK      -0.087000
     12 Cl1          1.4880     3.8630    -0.3320 cl         1 GXK      -0.149000
     13 N5           3.7530    -0.6910    -0.3020 nu         1 GXK      -0.934200
     14 C9           6.4780    -2.1410     1.0100 cx         1 GXK      -0.122400
     15 C10          1.3430    -0.5250    -0.1930 cd         1 GXK      -0.175000
     16 N11          1.0440    -1.8120    -0.1340 nc         1 GXK      -0.279600
     17 C13         -0.9220    -0.6040    -0.0800 cd         1 GXK      -0.055300
     18 C14         -2.3800    -0.3000    -0.0170 ca         1 GXK      -0.036800
     19 N18         -6.9120    -1.1260     0.2600 na         1 GXK       0.015500
     20 N19         -6.5680     0.2310     0.1800 nc         1 GXK      -0.284400
     21 C20         -5.1750     0.1820     0.1090 ca         1 GXK      -0.062000
     22 C22         -2.9070     1.0250    -0.0490 ca         1 GXK      -0.069000
     23 N23          0.1930     0.2230    -0.1630 na         1 GXK       0.272900
     24 N24          0.1540     1.6030    -0.1990 nd         1 GXK      -0.512800
     25 H1           3.5440     2.0110    -0.3780 ha         1 GXK       0.144000
     26 H2           5.3100     0.3540     0.6710 h1         1 GXK       0.051200
     27 H3           5.3650     0.4120    -1.1040 h1         1 GXK       0.051200
     28 H4           5.9500    -2.0440    -1.1550 hc         1 GXK       0.090700
     29 H5           8.2810    -1.8380    -0.2770 hc         1 GXK       0.076450
     30 H6           7.8000    -0.3660     0.7020 hc         1 GXK       0.076450
     31 H7          -0.8150    -2.8270    -0.0070 h4         1 GXK       0.230000
     32 H8          -2.9740    -2.4090     0.1100 ha         1 GXK       0.117000
     33 H9          -5.8900    -3.0350     0.2920 h4         1 GXK       0.227000
     34 H10         -4.6800     2.2850    -0.0140 ha         1 GXK       0.128000
     35 H11          3.5720    -1.6900    -0.2040 hn         1 GXK       0.523000
     36 H12          6.1010    -1.7490     1.9520 hc         1 GXK       0.076450
     37 H13          6.5810    -3.2230     0.9770 hc         1 GXK       0.076450
     38 H14         -7.8850    -1.4160     0.3240 hn         1 GXK       0.370000
     39 H15         -2.2610     1.8900    -0.1250 ha         1 GXK       0.126000
@<TRIPOS>BOND
     1     1     2 1   
     2     1    12 1   
     3     1    24 2   
     4     2     3 2   
     5     2    25 1   
     6     3    13 1   
     7     3    15 1   
     8     4     5 1   
     9     4    13 1   
    10     4    26 1   
    11     4    27 1   
    12     5     6 1   
    13     5    14 1   
    14     5    28 1   
    15     6    14 1   
    16     6    29 1   
    17     6    30 1   
    18     7    16 1   
    19     7    17 2   
    20     7    31 1   
    21     8     9 ar  
    22     8    18 ar  
    23     8    32 1   
    24     9    10 2   
    25     9    21 ar  
    26    10    19 1   
    27    10    33 1   
    28    11    21 ar  
    29    11    22 ar  
    30    11    34 1   
    31    13    35 1   
    32    14    36 1   
    33    14    37 1   
    34    15    16 2   
    35    15    23 1   
    36    17    18 1   
    37    17    23 1   
    38    18    22 ar  
    39    19    20 1   
    40    19    38 1   
    41    20    21 2   
    42    22    39 1   
    43    23    24 1   
@<TRIPOS>SUBSTRUCTURE
     1 GXK         1 TEMP              0 ****  ****    0 ROOT
