@<TRIPOS>MOLECULE
GXL
   24    24     1     0     0
SMALL
No Charge or Current Charge


@<TRIPOS>ATOM
      1 C1          28.8400    17.7920    59.6170 c6         1 GXL       0.391300
      2 C2          27.8660    18.7450    58.8280 c6         1 GXL       0.161300
      3 C3          27.6280    20.0650    59.6270 c6         1 GXL       0.138300
      4 C4          28.9860    20.7410    59.9790 c6         1 GXL       0.121300
      5 C5          29.8880    19.7020    60.7330 c6         1 GXL       0.141300
      6 C6          31.3140    20.2380    61.0750 c3         1 GXL       0.156600
      7 O1          28.2930    17.3210    60.8510 oh         1 GXL      -0.724000
      8 O2          26.5980    18.1310    58.4920 oh         1 GXL      -0.707000
      9 O3          26.8250    20.9760    58.8520 oh         1 GXL      -0.712000
     10 O4          29.5950    21.2380    58.7630 oh         1 GXL      -0.701000
     11 O5          30.0590    18.4900    59.9430 os         1 GXL      -0.483000
     12 O6          31.2840    21.4570    61.8410 oh         1 GXL      -0.731000
     13 H1          29.0820    16.9340    58.9690 h2         1 GXL       0.077700
     14 H2          28.3880    19.0120    57.8970 h1         1 GXL       0.070700
     15 H3          27.1120    19.8150    60.5670 h1         1 GXL       0.057700
     16 H4          28.7830    21.5790    60.6630 h1         1 GXL       0.049700
     17 H5          29.4050    19.4440    61.6870 h1         1 GXL       0.060700
     18 H61         31.8660    20.3920    60.1370 h1         1 GXL       0.037700
     19 H62         31.8410    19.4550    61.6360 h1         1 GXL       0.037700
     20 HO1         29.0130    16.7880    61.2530 ho         1 GXL       0.512000
     21 HO2         25.9820    18.8940    58.3670 ho         1 GXL       0.521000
     22 HO3         27.4940    21.5120    58.3570 ho         1 GXL       0.508000
     23 HO4         30.3980    21.7420    59.0340 ho         1 GXL       0.505000
     24 HO6         32.2160    21.6640    62.0920 ho         1 GXL       0.511000
@<TRIPOS>BOND
     1     1     2 1   
     2     1     7 1   
     3     1    11 1   
     4     1    13 1   
     5     2     3 1   
     6     2     8 1   
     7     2    14 1   
     8     3     4 1   
     9     3     9 1   
    10     3    15 1   
    11     4     5 1   
    12     4    10 1   
    13     4    16 1   
    14     5     6 1   
    15     5    11 1   
    16     5    17 1   
    17     6    12 1   
    18     6    18 1   
    19     6    19 1   
    20     7    20 1   
    21     8    21 1   
    22     9    22 1   
    23    10    23 1   
    24    12    24 1   
@<TRIPOS>SUBSTRUCTURE
     1 GXL         1 TEMP              0 ****  ****    0 ROOT
