@<TRIPOS>MOLECULE
GXL
   24    24     1     0     0
SMALL
bcc


@<TRIPOS>ATOM
      1 C1          28.8310    17.8550    59.7110 c6         1 GXL       0.344900
      2 C2          27.9600    18.7780    58.8600 c6         1 GXL       0.138100
      3 C3          27.7560    20.1080    59.5750 c6         1 GXL       0.115100
      4 C4          29.1080    20.7380    59.9150 c6         1 GXL       0.098100
      5 C5          29.9140    19.7230    60.7290 c6         1 GXL       0.118100
      6 C6          31.3390    20.1660    61.0230 c3         1 GXL       0.133400
      7 O1          28.1080    17.4760    60.8370 oh         1 GXL      -0.601800
      8 O2          26.7500    18.1180    58.5930 oh         1 GXL      -0.584800
      9 O3          26.9640    20.9190    58.7420 oh         1 GXL      -0.589800
     10 O4          29.7520    21.1030    58.7170 oh         1 GXL      -0.578800
     11 O5          30.0370    18.4940    60.0330 os         1 GXL      -0.436600
     12 O6          31.2840    21.4200    61.6620 oh         1 GXL      -0.608800
     13 H1          29.1290    16.9810    59.1210 h2         1 GXL       0.077700
     14 H2          28.5150    18.9630    57.9290 h1         1 GXL       0.070700
     15 H3          27.2430    19.9170    60.5280 h1         1 GXL       0.057700
     16 H4          28.9260    21.6160    60.5490 h1         1 GXL       0.049700
     17 H5          29.3930    19.5770    61.6850 h1         1 GXL       0.060700
     18 H61         31.9090    20.2090    60.0860 h1         1 GXL       0.037700
     19 H62         31.8180    19.4080    61.6540 h1         1 GXL       0.037700
     20 HO1         28.5700    16.7530    61.2750 ho         1 GXL       0.413000
     21 HO2         26.2200    18.6960    58.0340 ho         1 GXL       0.422000
     22 HO3         26.6080    21.6440    59.2640 ho         1 GXL       0.409000
     23 HO4         30.4390    21.7450    58.9210 ho         1 GXL       0.406000
     24 HO6         32.1840    21.7190    61.8170 ho         1 GXL       0.412000
@<TRIPOS>BOND
     1     1     2 1   
     2     1     7 1   
     3     1    11 1   
     4     1    13 1   
     5     2     3 1   
     6     2     8 1   
     7     2    14 1   
     8     3     4 1   
     9     3     9 1   
    10     3    15 1   
    11     4     5 1   
    12     4    10 1   
    13     4    16 1   
    14     5     6 1   
    15     5    11 1   
    16     5    17 1   
    17     6    12 1   
    18     6    18 1   
    19     6    19 1   
    20     7    20 1   
    21     8    21 1   
    22     9    22 1   
    23    10    23 1   
    24    12    24 1   
@<TRIPOS>SUBSTRUCTURE
     1 GXL         1 TEMP              0 ****  ****    0 ROOT
