@<TRIPOS>MOLECULE
GXM
   23    23     1     0     0
SMALL
No Charge or Current Charge


@<TRIPOS>ATOM
      1 C10         33.2730    76.6420    62.0010 ca         1 GXM      -0.122200
      2 C15         33.3270    74.4240    63.0280 ca         1 GXM      -0.120000
      3 C17         35.2470    75.9020    63.2310 ca         1 GXM      -0.084000
      4 C03         36.2690    78.7670    63.1400 ce         1 GXM      -0.529200
      5 C04         37.0590    79.8730    62.9680 cf         1 GXM       0.180900
      6 C05         38.0080    80.4180    64.0610 c          1 GXM       0.706200
      7 C09         34.5910    76.9020    62.4760 ca         1 GXM      -0.056600
      8 C14         32.6560    75.4020    62.2770 ca         1 GXM      -0.077000
      9 C16         34.6200    74.6760    63.5070 ca         1 GXM      -0.092000
     10 N11         32.4960    77.6730    61.2540 no         1 GXM       0.680200
     11 O01         35.2060    78.7340    61.0530 o          1 GXM      -0.640100
     12 O06         38.6810    81.4170    63.8200 o          1 GXM      -0.678500
     13 O07         38.0630    79.8380    65.1410 o          1 GXM      -0.678500
     14 O08         36.9910    80.5010    61.7780 oh         1 GXM      -0.510100
     15 O12         31.8670    77.3000    60.2540 o          1 GXM      -0.390500
     16 O13         32.3070    78.7610    61.8160 o          1 GXM      -0.390500
     17 H1          32.8430    73.4730    63.2400 ha         1 GXM       0.114000
     18 H2          36.2640    76.0570    63.5850 ha         1 GXM       0.143000
     19 H3          36.3080    78.2610    64.1020 ha         1 GXM       0.213000
     20 H4          31.6460    75.2000    61.9230 ha         1 GXM       0.134000
     21 H5          35.1420    73.9160    64.0840 ha         1 GXM       0.116000
     22 H7          36.3180    79.9720    61.2750 ho         1 GXM       0.496000
     23 C02         35.3240    78.1880    62.1440 c          1 GXM       0.585900
@<TRIPOS>BOND
     1     1     7 ar  
     2     1     8 ar  
     3     1    10 1   
     4     2     8 ar  
     5     2     9 ar  
     6     2    17 1   
     7     3     7 ar  
     8     3     9 ar  
     9     3    18 1   
    10     4     5 2   
    11     4    19 1   
    12     4    23 1   
    13     5     6 1   
    14     5    14 1   
    15     6    12 1   
    16     6    13 1   
    17     7    23 1   
    18     8    20 1   
    19     9    21 1   
    20    10    15 1   
    21    10    16 1   
    22    11    23 2   
    23    14    22 1   
@<TRIPOS>SUBSTRUCTURE
     1 GXM         1 TEMP              0 ****  ****    0 ROOT
