@<TRIPOS>MOLECULE
GXM
   23    23     1     0     0
SMALL
abcg2


@<TRIPOS>ATOM
      1 C10         33.3340    76.6530    62.0900 ca         1 GXM      -0.122200
      2 C15         33.3450    74.4190    62.9330 ca         1 GXM      -0.120000
      3 C17         35.2790    75.8350    63.1960 ca         1 GXM      -0.084000
      4 C03         36.1970    78.7280    63.2200 ce         1 GXM      -0.529200
      5 C04         36.9510    79.8400    62.9490 cf         1 GXM       0.180900
      6 C05         37.8500    80.5040    64.0080 c          1 GXM       0.706200
      7 C09         34.6390    76.8800    62.5340 ca         1 GXM      -0.056600
      8 C14         32.6830    75.4450    62.2690 ca         1 GXM      -0.077000
      9 C16         34.6400    74.6160    63.3960 ca         1 GXM      -0.092000
     10 N11         32.5620    77.7390    61.4710 no         1 GXM       0.680200
     11 O01         35.3210    78.5800    61.0400 o          1 GXM      -0.640100
     12 O06         38.8030    81.1810    63.5680 o          1 GXM      -0.678500
     13 O07         37.5330    80.2820    65.1970 o          1 GXM      -0.678500
     14 O08         36.9650    80.3950    61.7510 oh         1 GXM      -0.510100
     15 O12         31.8960    77.4690    60.4810 o          1 GXM      -0.390500
     16 O13         32.5970    78.8400    62.0000 o          1 GXM      -0.390500
     17 H1          32.8430    73.4740    63.0910 ha         1 GXM       0.114000
     18 H2          36.2980    75.9710    63.5300 ha         1 GXM       0.143000
     19 H3          36.2080    78.3270    64.2190 ha         1 GXM       0.213000
     20 H4          31.6680    75.3230    61.9190 ha         1 GXM       0.134000
     21 H5          35.1610    73.8170    63.9070 ha         1 GXM       0.116000
     22 H7          36.3380    79.8530    61.1840 ho         1 GXM       0.496000
     23 C02         35.3950    78.1270    62.2040 c          1 GXM       0.585900
@<TRIPOS>BOND
     1     1     7 ar  
     2     1     8 ar  
     3     1    10 1   
     4     2     8 ar  
     5     2     9 ar  
     6     2    17 1   
     7     3     7 ar  
     8     3     9 ar  
     9     3    18 1   
    10     4     5 2   
    11     4    19 1   
    12     4    23 1   
    13     5     6 1   
    14     5    14 1   
    15     6    12 1   
    16     6    13 1   
    17     7    23 1   
    18     8    20 1   
    19     9    21 1   
    20    10    15 1   
    21    10    16 1   
    22    11    23 2   
    23    14    22 1   
@<TRIPOS>SUBSTRUCTURE
     1 GXM         1 TEMP              0 ****  ****    0 ROOT
