@<TRIPOS>MOLECULE
GXN
   52    54     1     0     0
SMALL
bcc


@<TRIPOS>ATOM
      1 C10          1.6910     1.8020     2.1180 c3         1 GXN       0.215100
      2 C13          4.8870     0.1630     0.9390 ca         1 GXN      -0.008900
      3 C15          3.8920     1.2890    -0.9300 ca         1 GXN       0.121100
      4 C17          5.7650    -1.0270    -1.9530 c3         1 GXN       0.125700
      5 BR1          6.2920    -0.8670     1.6590 br         1 GXN      -0.081100
      6 C01         -3.0970    -0.6820    -0.7810 ca         1 GXN       0.157100
      7 C02         -3.8960     0.4660    -0.7330 ca         1 GXN       0.077100
      8 C03         -3.4700     1.6090    -0.0940 ca         1 GXN      -0.093000
      9 C04         -2.2210     1.6540     0.5240 ca         1 GXN      -0.095300
     10 C05         -1.4150     0.5240     0.4760 ca         1 GXN      -0.029300
     11 C06         -1.8530    -0.6330    -0.1710 ca         1 GXN      -0.209000
     12 C07         -1.7500     2.9010     1.2180 c6         1 GXN      -0.021100
     13 C08         -0.5840     2.6110     2.1450 c6         1 GXN       0.170800
     14 C09         -0.0640     0.5100     1.1370 c6         1 GXN       0.205100
     15 C11          2.8120     1.3210     1.2300 ca         1 GXN      -0.056300
     16 C12          3.8360     0.5540     1.7610 ca         1 GXN      -0.135000
     17 C14          4.9420     0.5170    -0.4000 ca         1 GXN       0.091100
     18 C16          2.8440     1.6870    -0.1140 ca         1 GXN      -0.183000
     19 C18          2.9600     2.3270    -2.8430 c3         1 GXN       0.119700
     20 C19         -2.8360    -2.9250    -1.4850 c3         1 GXN       0.125700
     21 N01          0.4200     1.8420     1.4330 n3         1 GXN      -0.724600
     22 N02         -6.7540     1.3310     0.2810 n8         1 GXN      -0.942700
     23 O02          5.9820     0.1550    -1.1870 os         1 GXN      -0.310900
     24 O03         -3.6030    -1.7380    -1.4340 os         1 GXN      -0.298900
     25 O04         -5.1130     0.4400    -1.3930 os         1 GXN      -0.422800
     26 O05         -6.0660    -1.0440     0.3960 o          1 GXN      -0.616300
     27 O06         -7.3740    -0.3050    -1.6120 o          1 GXN      -0.616300
     28 S01         -6.4230    -0.0280    -0.5630 s6         1 GXN       1.526400
     29 H09          1.6610     1.1780     3.0270 h1         1 GXN       0.044200
     30 H10          1.9270     2.8170     2.4510 h1         1 GXN       0.044200
     31 H13          5.5930    -1.8940    -1.3110 h1         1 GXN       0.038367
     32 H15          4.9200    -0.9180    -2.6360 h1         1 GXN       0.038367
     33 H14          6.6680    -1.1960    -2.5350 h1         1 GXN       0.038367
     34 H01         -4.1180     2.4770    -0.0780 ha         1 GXN       0.149000
     35 H02         -1.1970    -1.4940    -0.1920 ha         1 GXN       0.141000
     36 H04         -1.4420     3.6410     0.4730 hc         1 GXN       0.056200
     37 H03         -2.5680     3.3520     1.7830 hc         1 GXN       0.056200
     38 H06         -0.1410     3.5500     2.4790 h1         1 GXN       0.037200
     39 H05         -0.9360     2.0830     3.0470 h1         1 GXN       0.037200
     40 H08         -0.1230    -0.1060     2.0530 h1         1 GXN       0.048700
     41 H07          0.6490     0.0050     0.4800 h1         1 GXN       0.048700
     42 H11          3.8100     0.2580     2.8020 ha         1 GXN       0.147000
     43 H12          2.0220     2.2740    -0.5040 ha         1 GXN       0.160000
     44 H17          2.0060     1.7970    -2.7900 h1         1 GXN       0.044033
     45 H16          2.8400     3.3170    -2.3950 h1         1 GXN       0.044033
     46 H18          3.2380     2.4450    -3.8870 h1         1 GXN       0.044033
     47 H21         -1.8850    -2.7740    -2.0030 h1         1 GXN       0.045367
     48 H20         -2.6360    -3.3220    -0.4870 h1         1 GXN       0.045367
     49 H19         -3.4260    -3.6490    -2.0400 h1         1 GXN       0.045367
     50 H22         -7.2000     2.0580    -0.2690 hn         1 GXN       0.428800
     51 H23         -7.2630     1.1430     1.1370 hn         1 GXN       0.428800
     52 O01          4.0040     1.5930    -2.2320 os         1 GXN      -0.303900
@<TRIPOS>BOND
     1     1    15 1   
     2     1    21 1   
     3     1    29 1   
     4     1    30 1   
     5     2     5 1   
     6     2    16 ar  
     7     2    17 ar  
     8     3    17 ar  
     9     3    18 ar  
    10     3    52 1   
    11     4    23 1   
    12     4    31 1   
    13     4    32 1   
    14     4    33 1   
    15     6     7 ar  
    16     6    11 ar  
    17     6    24 1   
    18     7     8 ar  
    19     7    25 1   
    20     8     9 ar  
    21     8    34 1   
    22     9    10 ar  
    23     9    12 1   
    24    10    11 ar  
    25    10    14 1   
    26    11    35 1   
    27    12    13 1   
    28    12    36 1   
    29    12    37 1   
    30    13    21 1   
    31    13    38 1   
    32    13    39 1   
    33    14    21 1   
    34    14    40 1   
    35    14    41 1   
    36    15    16 ar  
    37    15    18 ar  
    38    16    42 1   
    39    17    23 1   
    40    18    43 1   
    41    19    44 1   
    42    19    45 1   
    43    19    46 1   
    44    19    52 1   
    45    20    24 1   
    46    20    47 1   
    47    20    48 1   
    48    20    49 1   
    49    22    28 1   
    50    22    50 1   
    51    22    51 1   
    52    25    28 1   
    53    26    28 2   
    54    27    28 2   
@<TRIPOS>SUBSTRUCTURE
     1 GXN         1 TEMP              0 ****  ****    0 ROOT
