@<TRIPOS>MOLECULE
GXN
   52    54     1     0     0
SMALL
No Charge or Current Charge


@<TRIPOS>ATOM
      1 C10          1.7960     2.0740     1.8750 c3         1 GXN       0.215100
      2 C13          4.3950    -0.5570     0.8560 ca         1 GXN      -0.008900
      3 C15          4.1600     1.0360    -0.9880 ca         1 GXN       0.121100
      4 C17          6.2420    -0.6630    -2.4040 c3         1 GXN       0.148900
      5 Br1          5.1790    -2.1250     1.6390 br         1 GXN      -0.081100
      6 C01         -3.3610    -0.6800    -0.4300 ca         1 GXN       0.157100
      7 C02         -4.1910     0.4650    -0.3690 ca         1 GXN       0.077100
      8 C03         -3.6900     1.6730     0.1430 ca         1 GXN      -0.075000
      9 C04         -2.3700     1.7500     0.6240 ca         1 GXN      -0.095300
     10 C05         -1.5370     0.6120     0.5750 ca         1 GXN      -0.029300
     11 C06         -2.0350    -0.5970     0.0510 ca         1 GXN      -0.191000
     12 C07         -1.8320     3.0770     1.1660 c6         1 GXN      -0.021100
     13 C08         -0.5200     2.9230     1.9700 c6         1 GXN       0.170800
     14 C09         -0.0970     0.6740     1.1050 c6         1 GXN       0.205100
     15 C11          2.8410     1.3040     1.0700 ca         1 GXN      -0.056300
     16 C12          3.4430     0.1530     1.6020 ca         1 GXN      -0.117000
     17 C14          4.7700    -0.1360    -0.4390 ca         1 GXN       0.091100
     18 C16          3.2020     1.7380    -0.2180 ca         1 GXN      -0.165000
     19 C18          3.9050     2.6470    -2.8640 c3         1 GXN       0.142900
     20 C19         -3.0960    -3.0550    -1.0750 c3         1 GXN       0.148900
     21 N01          0.4480     2.0540     1.2570 n3         1 GXN      -0.724600
     22 N02         -7.6690     0.8570     0.1820 n8         1 GXN      -1.053100
     23 O02          5.7250    -0.9180    -1.0860 os         1 GXN      -0.334100
     24 O03         -3.8720    -1.8490    -0.9690 os         1 GXN      -0.322100
     25 O04         -5.4870     0.4350    -0.8380 os         1 GXN      -0.422800
     26 O05         -6.1400    -0.7130     1.3620 o          1 GXN      -0.545500
     27 O06         -7.3050    -1.3370    -0.8370 o          1 GXN      -0.545500
     28 S01         -6.6230    -0.3730     0.0230 s6         1 GXN       1.384800
     29 H09          1.7490     1.6640     2.8940 h1         1 GXN       0.044200
     30 H10          2.1440     3.1120     1.9690 h1         1 GXN       0.044200
     31 H13          5.4400    -0.6950    -3.1530 h1         1 GXN       0.038367
     32 H15          6.7410     0.3130    -2.4480 h1         1 GXN       0.038367
     33 H14          6.9800    -1.4290    -2.6730 h1         1 GXN       0.038367
     34 H01         -4.3300     2.5520     0.1680 ha         1 GXN       0.131000
     35 H02         -1.3750    -1.4600     0.0230 ha         1 GXN       0.123000
     36 H04         -1.6520     3.7550     0.3210 hc         1 GXN       0.056200
     37 H03         -2.5880     3.5650     1.7960 hc         1 GXN       0.056200
     38 H06         -0.0940     3.9230     2.1400 h1         1 GXN       0.037200
     39 H05         -0.7520     2.4980     2.9580 h1         1 GXN       0.037200
     40 H08         -0.0780     0.1550     2.0750 h1         1 GXN       0.048700
     41 H07          0.5420     0.0910     0.4260 h1         1 GXN       0.048700
     42 H11          3.1690    -0.1960     2.5950 ha         1 GXN       0.129000
     43 H12          2.7120     2.6280    -0.6030 ha         1 GXN       0.142000
     44 H17          2.8190     2.5270    -2.9630 h1         1 GXN       0.044033
     45 H16          4.1110     3.5450    -2.2690 h1         1 GXN       0.044033
     46 H18          4.3220     2.8030    -3.8670 h1         1 GXN       0.044033
     47 H21         -2.2100    -2.8960    -1.7020 h1         1 GXN       0.045367
     48 H20         -2.7720    -3.3990    -0.0840 h1         1 GXN       0.045367
     49 H19         -3.6960    -3.8530    -1.5310 h1         1 GXN       0.045367
     50 H22         -7.2800     1.4860    -0.5140 hn         1 GXN       0.484000
     51 H23         -8.4720     0.4450    -0.2850 hn         1 GXN       0.484000
     52 O01          4.4960     1.4830    -2.2570 os         1 GXN      -0.327100
@<TRIPOS>BOND
     1     1    15 1   
     2     1    21 1   
     3     1    29 1   
     4     1    30 1   
     5     2     5 1   
     6     2    16 ar  
     7     2    17 ar  
     8     3    17 ar  
     9     3    18 ar  
    10     3    52 1   
    11     4    23 1   
    12     4    31 1   
    13     4    32 1   
    14     4    33 1   
    15     6     7 ar  
    16     6    11 ar  
    17     6    24 1   
    18     7     8 ar  
    19     7    25 1   
    20     8     9 ar  
    21     8    34 1   
    22     9    10 ar  
    23     9    12 1   
    24    10    11 ar  
    25    10    14 1   
    26    11    35 1   
    27    12    13 1   
    28    12    36 1   
    29    12    37 1   
    30    13    21 1   
    31    13    38 1   
    32    13    39 1   
    33    14    21 1   
    34    14    40 1   
    35    14    41 1   
    36    15    16 ar  
    37    15    18 ar  
    38    16    42 1   
    39    17    23 1   
    40    18    43 1   
    41    19    44 1   
    42    19    45 1   
    43    19    46 1   
    44    19    52 1   
    45    20    24 1   
    46    20    47 1   
    47    20    48 1   
    48    20    49 1   
    49    22    28 1   
    50    22    50 1   
    51    22    51 1   
    52    25    28 1   
    53    26    28 2   
    54    27    28 2   
@<TRIPOS>SUBSTRUCTURE
     1 GXN         1 TEMP              0 ****  ****    0 ROOT
