@<TRIPOS>MOLECULE
GXO
  110   115     1     0     0
SMALL
No Charge or Current Charge


@<TRIPOS>ATOM
      1 C13          1.4010    -3.4970   -12.2640 ca         1 GXO       0.040000
      2 C17          3.2100    -3.2840   -13.8520 ca         1 GXO       0.375900
      3 C15          2.6010    -3.9830   -12.8020 ca         1 GXO      -0.192000
      4 C20          1.5570    -1.6570   -13.8410 ca         1 GXO       0.617300
      5 C22          2.0030     0.5520   -14.4970 c5         1 GXO       0.170300
      6 C24          2.3960     1.0640   -13.0790 c5         1 GXO      -0.112400
      7 C11          0.7540    -4.1770   -11.2170 ca         1 GXO      -0.205000
      8 C34          2.1230     4.2290    -8.7740 c          1 GXO       0.679100
      9 C27          1.1140     1.8260   -12.6200 c5         1 GXO       0.030700
     10 C33          0.7750     3.7870    -9.3730 cx         1 GXO      -0.068600
     11 C2          -1.0050    -2.4910   -11.2360 ca         1 GXO       0.132000
     12 C3          -0.3560    -1.8140   -12.2810 ca         1 GXO      -0.076000
     13 C5          -0.4590    -3.6740   -10.6930 ca         1 GXO       0.141100
     14 O6          -1.1330    -4.3060    -9.6630 os         1 GXO      -0.318100
     15 C7          -0.6490    -5.5150    -9.0510 c3         1 GXO       0.144900
     16 C14          0.8590    -2.3140   -12.8000 ca         1 GXO      -0.118000
     17 N19          2.7030    -2.1460   -14.3720 nb         1 GXO      -0.780000
     18 O21          1.0040    -0.5080   -14.3730 os         1 GXO      -0.458300
     19 C29          1.5130     2.9270   -11.5900 c          1 GXO       0.589100
     20 O30          2.3300     3.8210   -11.7590 o          1 GXO      -0.568100
     21 N31          0.8130     2.7650   -10.4080 ns         1 GXO      -0.473900
     22 N35          2.9410     3.1810    -8.5200 ns         1 GXO      -0.570300
     23 S37          4.5190     3.2270    -8.0040 s6         1 GXO       1.252800
     24 O38          4.5020     3.2980    -6.5390 o          1 GXO      -0.514000
     25 C39          5.1450     1.5310    -8.5030 cx         1 GXO      -0.401000
     26 C40          5.1540     1.3620   -10.0280 c3         1 GXO      -0.043100
     27 C44          4.8180     0.3400    -7.6190 cx         1 GXO      -0.078400
     28 C47          6.2320     0.8770    -7.6690 cx         1 GXO      -0.078400
     29 O50          5.2420     4.2390    -8.7820 o          1 GXO      -0.514000
     30 O51          2.4330     5.3850    -8.5250 o          1 GXO      -0.545100
     31 C52         -0.3970     4.7460    -9.5370 cx         1 GXO      -0.035500
     32 C54         -0.3810     3.7650    -8.3910 cx         1 GXO      -0.095400
     33 C57         -0.2420     6.2160    -9.3350 c2         1 GXO      -0.190200
     34 C59         -0.0960     7.1290   -10.3140 c2         1 GXO      -0.188200
     35 C61         -0.0680     6.8720   -11.8150 c3         1 GXO      -0.047200
     36 C64          1.2950     7.2280   -12.4490 c3         1 GXO      -0.073400
     37 C67          1.3650     7.1740   -14.0080 c3         1 GXO      -0.051700
     38 C69          2.7650     7.6310   -14.4810 c3         1 GXO      -0.088100
     39 C73          1.0110     5.7760   -14.6150 c3         1 GXO      -0.080400
     40 C76         -0.4840     5.5480   -15.0280 c3         1 GXO      -0.062700
     41 C78         -0.9210     6.4500   -16.2300 c3         1 GXO      -0.072400
     42 C81         -0.1500     6.2290   -17.5520 c3         1 GXO      -0.092100
     43 C85         -0.8200     4.0310   -15.2470 c3         1 GXO       0.063700
     44 C87         -0.5400     3.1860   -13.9660 c          1 GXO       0.592100
     45 O88         -1.2810     3.2540   -12.9910 o          1 GXO      -0.619100
     46 N89          0.6290     2.3970   -13.9030 n          1 GXO      -0.390800
     47 C90          1.2750     1.7900   -15.0940 c5         1 GXO       0.099000
     48 N93         -2.2410     3.8460   -15.6130 ns         1 GXO      -0.483900
     49 C95         -2.6950     3.4270   -16.8280 c          1 GXO       0.656100
     50 O96         -1.9800     3.1050   -17.7620 o          1 GXO      -0.550000
     51 O97         -4.0620     3.4130   -16.7840 os         1 GXO      -0.464100
     52 C98         -4.8920     3.0280   -17.9160 c3         1 GXO       0.166000
     53 C99         -4.6060     3.9990   -19.0990 c3         1 GXO      -0.126100
     54 CA3         -4.5790     1.5490   -18.2880 c3         1 GXO      -0.126100
     55 CA7         -6.3800     3.1740   -17.4240 c3         1 GXO       0.303000
     56 FA8         -6.6300     2.3730   -16.3600 f          1 GXO      -0.109000
     57 FA9         -6.6530     4.4460   -17.0460 f          1 GXO      -0.109000
     58 FB0         -7.2610     2.8420   -18.3970 f          1 GXO      -0.109000
     59 H1           4.1380    -3.6470   -14.2930 h4         1 GXO       0.020100
     60 H2           3.0580    -4.8920   -12.4240 ha         1 GXO       0.127000
     61 H3           2.8530     0.2350   -15.1190 h1         1 GXO       0.092700
     62 H4           2.6870     0.2700   -12.3820 hc         1 GXO       0.075200
     63 H5           3.2580     1.7360   -13.1600 hc         1 GXO       0.075200
     64 H6           1.2010    -5.0860   -10.8270 ha         1 GXO       0.128000
     65 H7           0.3680     1.1460   -12.1880 h1         1 GXO       0.075700
     66 H8          -0.8060    -0.9090   -12.6810 ha         1 GXO       0.155000
     67 H9          -1.3350    -5.8410    -8.2600 h1         1 GXO       0.047367
     68 H10         -0.5740    -6.3230    -9.7900 h1         1 GXO       0.047367
     69 H11          0.3390    -5.3550    -8.6000 h1         1 GXO       0.047367
     70 H12          0.1540     1.9960   -10.3720 hn         1 GXO       0.323500
     71 H13          2.6310     2.2510    -8.7350 hn         1 GXO       0.338500
     72 H14          5.5170     0.3690   -10.3190 hc         1 GXO       0.053033
     73 H15          4.1490     1.4780   -10.4520 hc         1 GXO       0.053033
     74 H16          5.8080     2.1010   -10.5070 hc         1 GXO       0.053033
     75 H17          4.2490     0.5060    -6.7060 hc         1 GXO       0.088450
     76 H18          4.6270    -0.6200    -8.0950 hc         1 GXO       0.088450
     77 H19          6.9820     0.2750    -8.1780 hc         1 GXO       0.088450
     78 H20          6.6020     1.4020    -6.7900 hc         1 GXO       0.088450
     79 H21         -1.1080     4.5090   -10.3260 hc         1 GXO       0.102700
     80 H22         -0.2110     4.1570    -7.3910 hc         1 GXO       0.086700
     81 H23         -1.0720     2.9270    -8.4330 hc         1 GXO       0.086700
     82 H24         -0.2490     6.5460    -8.2940 ha         1 GXO       0.189000
     83 H25          0.0110     8.1830   -10.0490 ha         1 GXO       0.168000
     84 H26         -0.8550     7.4650   -12.2980 hc         1 GXO       0.046700
     85 H27         -0.2910     5.8220   -12.0300 hc         1 GXO       0.046700
     86 H28          2.0600     6.5640   -12.0290 hc         1 GXO       0.049700
     87 H29          1.5630     8.2430   -12.1290 hc         1 GXO       0.049700
     88 H30          0.6570     7.9180   -14.3870 hc         1 GXO       0.041700
     89 H31          3.0050     8.6260   -14.0870 hc         1 GXO       0.033700
     90 H32          3.5400     6.9320   -14.1430 hc         1 GXO       0.033700
     91 H33          2.8060     7.6870   -15.5760 hc         1 GXO       0.033700
     92 H34          1.3200     5.0220   -13.8860 hc         1 GXO       0.050200
     93 H35          1.6410     5.5800   -15.4900 hc         1 GXO       0.050200
     94 H36         -1.1060     5.8680   -14.1850 hc         1 GXO       0.068700
     95 H37         -0.8310     7.5070   -15.9550 hc         1 GXO       0.043700
     96 H38         -1.9900     6.3070   -16.4270 hc         1 GXO       0.043700
     97 H39         -0.5970     6.8300   -18.3520 hc         1 GXO       0.034033
     98 H40          0.8980     6.5340   -17.4540 hc         1 GXO       0.034033
     99 H41         -0.1800     5.1790   -17.8620 hc         1 GXO       0.034033
    100 H42         -0.1930     3.6530   -16.0600 h1         1 GXO       0.085700
    101 H43          1.9900     2.4900   -15.5460 h1         1 GXO       0.079700
    102 H44          0.5470     1.4940   -15.8620 h1         1 GXO       0.079700
    103 H45         -2.9550     4.0390   -14.9210 hn         1 GXO       0.343500
    104 H46         -3.6260     3.8190   -19.5520 hc         1 GXO       0.067200
    105 H47         -5.3520     3.8740   -19.8930 hc         1 GXO       0.067200
    106 H48         -4.6410     5.0430   -18.7650 hc         1 GXO       0.067200
    107 H49         -4.5910     0.9110   -17.3970 hc         1 GXO       0.067200
    108 H50         -5.3230     1.1600   -18.9920 hc         1 GXO       0.067200
    109 H51         -3.6010     1.4440   -18.7700 hc         1 GXO       0.067200
    110 F1          -2.1670    -1.9930   -10.7510 f          1 GXO      -0.165000
@<TRIPOS>BOND
     1     1     3 ar  
     2     1     7 ar  
     3     1    16 ar  
     4     2     3 ar  
     5     2    17 ar  
     6     2    59 1   
     7     3    60 1   
     8     4    16 ar  
     9     4    17 ar  
    10     4    18 1   
    11     5     6 1   
    12     5    18 1   
    13     5    47 1   
    14     5    61 1   
    15     6     9 1   
    16     6    62 1   
    17     6    63 1   
    18     7    13 ar  
    19     7    64 1   
    20     8    10 1   
    21     8    22 1   
    22     8    30 2   
    23     9    19 1   
    24     9    46 1   
    25     9    65 1   
    26    10    21 1   
    27    10    31 1   
    28    10    32 1   
    29    11    12 ar  
    30    11    13 ar  
    31    11   110 1   
    32    12    16 ar  
    33    12    66 1   
    34    13    14 1   
    35    14    15 1   
    36    15    67 1   
    37    15    68 1   
    38    15    69 1   
    39    19    20 2   
    40    19    21 1   
    41    21    70 1   
    42    22    23 1   
    43    22    71 1   
    44    23    24 2   
    45    23    25 1   
    46    23    29 2   
    47    25    26 1   
    48    25    27 1   
    49    25    28 1   
    50    26    72 1   
    51    26    73 1   
    52    26    74 1   
    53    27    28 1   
    54    27    75 1   
    55    27    76 1   
    56    28    77 1   
    57    28    78 1   
    58    31    32 1   
    59    31    33 1   
    60    31    79 1   
    61    32    80 1   
    62    32    81 1   
    63    33    34 2   
    64    33    82 1   
    65    34    35 1   
    66    34    83 1   
    67    35    36 1   
    68    35    84 1   
    69    35    85 1   
    70    36    37 1   
    71    36    86 1   
    72    36    87 1   
    73    37    38 1   
    74    37    39 1   
    75    37    88 1   
    76    38    89 1   
    77    38    90 1   
    78    38    91 1   
    79    39    40 1   
    80    39    92 1   
    81    39    93 1   
    82    40    41 1   
    83    40    43 1   
    84    40    94 1   
    85    41    42 1   
    86    41    95 1   
    87    41    96 1   
    88    42    97 1   
    89    42    98 1   
    90    42    99 1   
    91    43    44 1   
    92    43    48 1   
    93    43   100 1   
    94    44    45 2   
    95    44    46 1   
    96    46    47 1   
    97    47   101 1   
    98    47   102 1   
    99    48    49 1   
   100    48   103 1   
   101    49    50 2   
   102    49    51 1   
   103    51    52 1   
   104    52    53 1   
   105    52    54 1   
   106    52    55 1   
   107    53   104 1   
   108    53   105 1   
   109    53   106 1   
   110    54   107 1   
   111    54   108 1   
   112    54   109 1   
   113    55    56 1   
   114    55    57 1   
   115    55    58 1   
@<TRIPOS>SUBSTRUCTURE
     1 GXO         1 TEMP              0 ****  ****    0 ROOT
