@<TRIPOS>MOLECULE
GXO
  110   115     1     0     0
SMALL
bcc


@<TRIPOS>ATOM
      1 C13          0.3540    -3.6830   -13.1520 ca         1 GXO       0.040000
      2 C17          2.6780    -3.1500   -12.9620 ca         1 GXO       0.441200
      3 C15          1.6920    -4.0870   -12.9110 ca         1 GXO      -0.275300
      4 C20          1.2450    -1.4600   -13.4820 ca         1 GXO       0.682600
      5 C22          2.0370     0.7740   -13.7180 c5         1 GXO       0.147100
      6 C24          2.2460     1.2220   -12.2790 c5         1 GXO      -0.112400
      7 C11         -0.7280    -4.5890   -13.1030 ca         1 GXO      -0.223000
      8 C34          2.2580     4.6600    -8.3390 c          1 GXO       0.746100
      9 C27          1.0330     2.1200   -12.0100 c5         1 GXO       0.030700
     10 C33          0.9500     4.3830    -9.0040 cx         1 GXO      -0.068600
     11 C2          -2.2230    -2.7770   -13.5960 ca         1 GXO       0.096900
     12 C3          -1.2080    -1.8800   -13.6650 ca         1 GXO      -0.094000
     13 C5          -2.0120    -4.1540   -13.3230 ca         1 GXO       0.141100
     14 O6          -3.1120    -4.9070   -13.3060 os         1 GXO      -0.294900
     15 C7          -2.9690    -6.2960   -13.0690 c3         1 GXO       0.121700
     16 C14          0.1140    -2.3250   -13.4420 ca         1 GXO      -0.183300
     17 N19          2.4620    -1.8450   -13.2440 nb         1 GXO      -0.780000
     18 O21          0.9880    -0.1890   -13.7980 os         1 GXO      -0.435100
     19 C29          1.3850     3.2820   -11.0930 c          1 GXO       0.656100
     20 O30          2.1170     4.1790   -11.4610 o          1 GXO      -0.568100
     21 N31          0.8830     3.2300    -9.8380 ns         1 GXO      -0.540900
     22 N35          3.2070     3.6900    -8.5250 ns         1 GXO      -0.637300
     23 S37          4.7810     3.8380    -7.9380 s6         1 GXO       1.283600
     24 O38          4.7950     3.5290    -6.5180 o          1 GXO      -0.584800
     25 C39          5.5390     2.5360    -8.8640 cx         1 GXO      -0.290200
     26 C40          5.6980     2.8440   -10.3310 c3         1 GXO      -0.043100
     27 C44          5.2590     1.1400    -8.3860 cx         1 GXO      -0.078400
     28 C47          6.5910     1.7580    -8.1300 cx         1 GXO      -0.078400
     29 O50          5.3020     5.1210    -8.3730 o          1 GXO      -0.584800
     30 O51          2.4710     5.6530    -7.6790 o          1 GXO      -0.545100
     31 C52          0.0770     5.5650    -9.4500 cx         1 GXO      -0.035500
     32 C54         -0.2910     4.7710    -8.2500 cx         1 GXO      -0.095400
     33 C57          0.4810     6.9840    -9.3910 c2         1 GXO      -0.140200
     34 C59          0.5610     7.7910   -10.4510 c2         1 GXO      -0.138200
     35 C61          0.3570     7.4420   -11.8930 c3         1 GXO      -0.047200
     36 C64          1.6460     7.6360   -12.6950 c3         1 GXO      -0.073400
     37 C67          1.5280     7.3690   -14.1990 c3         1 GXO      -0.051700
     38 C69          2.8380     7.7470   -14.8850 c3         1 GXO      -0.088100
     39 C73          1.1640     5.9050   -14.5200 c3         1 GXO      -0.080400
     40 C76         -0.3170     5.6380   -14.8250 c3         1 GXO      -0.062700
     41 C78         -0.7640     6.2890   -16.1430 c3         1 GXO      -0.072400
     42 C81         -0.1560     5.7060   -17.4130 c3         1 GXO      -0.092100
     43 C85         -0.5840     4.1220   -14.8400 c3         1 GXO       0.063700
     44 C87         -0.3040     3.5180   -13.4620 c          1 GXO       0.659100
     45 O88         -0.9800     3.8590   -12.4980 o          1 GXO      -0.619100
     46 N89          0.6900     2.6270   -13.3310 n          1 GXO      -0.457800
     47 C90          1.5110     2.0330   -14.3790 c5         1 GXO       0.099000
     48 N93         -1.9580     3.8450   -15.1920 ns         1 GXO      -0.550900
     49 C95         -2.3150     2.6830   -15.7700 c          1 GXO       0.772100
     50 O96         -1.5390     1.8210   -16.1240 o          1 GXO      -0.599000
     51 O97         -3.6460     2.6290   -15.9120 os         1 GXO      -0.440900
     52 C98         -4.3010     1.4910   -16.4840 c3         1 GXO       0.142800
     53 C99         -3.9390     1.2990   -17.9530 c3         1 GXO      -0.126100
     54 CA3         -4.0720     0.2240   -15.6670 c3         1 GXO      -0.126100
     55 CA7         -5.7720     1.9180   -16.3690 c3         1 GXO       0.666900
     56 FA8         -6.1330     2.1360   -15.1000 f          1 GXO      -0.230300
     57 FA9         -6.0270     3.0420   -17.0450 f          1 GXO      -0.230300
     58 FB0         -6.5870     0.9760   -16.8540 f          1 GXO      -0.230300
     59 H1           3.7090    -3.4240   -12.7730 h4         1 GXO       0.020100
     60 H2           1.9200    -5.1190   -12.6850 ha         1 GXO       0.145000
     61 H3           2.9440     0.4040   -14.1930 h1         1 GXO       0.092700
     62 H4           2.3300     0.4040   -11.5660 hc         1 GXO       0.075200
     63 H5           3.1710     1.8010   -12.2360 hc         1 GXO       0.075200
     64 H6          -0.5180    -5.6280   -12.8850 ha         1 GXO       0.146000
     65 H7           0.2020     1.5410   -11.5950 h1         1 GXO       0.075700
     66 H8          -1.4230    -0.8420   -13.8830 ha         1 GXO       0.173000
     67 H9          -3.9680    -6.7190   -13.1120 h1         1 GXO       0.047367
     68 H10         -2.3460    -6.7710   -13.8310 h1         1 GXO       0.047367
     69 H11         -2.5390    -6.4950   -12.0840 h1         1 GXO       0.047367
     70 H12          0.2390     2.4920    -9.5910 hn         1 GXO       0.323500
     71 H13          2.9400     2.7910    -8.9100 hn         1 GXO       0.338500
     72 H14          6.1290     1.9780   -10.8310 hc         1 GXO       0.053033
     73 H15          4.7440     3.0620   -10.8120 hc         1 GXO       0.053033
     74 H16          6.3670     3.6880   -10.4890 hc         1 GXO       0.053033
     75 H17          4.5990     0.9930    -7.5410 hc         1 GXO       0.088450
     76 H18          5.1670     0.3900    -9.1620 hc         1 GXO       0.088450
     77 H19          7.4370     1.4460    -8.7290 hc         1 GXO       0.088450
     78 H20          6.8380     2.0280    -7.1120 hc         1 GXO       0.088450
     79 H21         -0.4700     5.2890   -10.3430 hc         1 GXO       0.102700
     80 H22         -0.1430     5.2170    -7.2740 hc         1 GXO       0.086700
     81 H23         -1.1340     4.0930    -8.3120 hc         1 GXO       0.086700
     82 H24          0.6840     7.3990    -8.4130 ha         1 GXO       0.139000
     83 H25          0.8310     8.8270   -10.2630 ha         1 GXO       0.118000
     84 H26         -0.4180     8.0940   -12.3120 hc         1 GXO       0.046700
     85 H27         -0.0030     6.4200   -12.0030 hc         1 GXO       0.046700
     86 H28          2.4250     6.9880   -12.2800 hc         1 GXO       0.049700
     87 H29          1.9950     8.6640   -12.5500 hc         1 GXO       0.049700
     88 H30          0.7470     8.0310   -14.5910 hc         1 GXO       0.041700
     89 H31          3.1210     8.7800   -14.6720 hc         1 GXO       0.033700
     90 H32          3.6540     7.1040   -14.5470 hc         1 GXO       0.033700
     91 H33          2.7620     7.6390   -15.9690 hc         1 GXO       0.033700
     92 H34          1.5010     5.2820   -13.6880 hc         1 GXO       0.050200
     93 H35          1.7490     5.5660   -15.3810 hc         1 GXO       0.050200
     94 H36         -0.9280     6.0750   -14.0280 hc         1 GXO       0.068700
     95 H37         -0.5270     7.3550   -16.0900 hc         1 GXO       0.043700
     96 H38         -1.8530     6.2420   -16.2190 hc         1 GXO       0.043700
     97 H39         -0.4730     6.2850   -18.2810 hc         1 GXO       0.034033
     98 H40          0.9350     5.7220   -17.3960 hc         1 GXO       0.034033
     99 H41         -0.4700     4.6760   -17.5850 hc         1 GXO       0.034033
    100 H42          0.0530     3.6780   -15.6030 h1         1 GXO       0.085700
    101 H43          2.3480     2.6810   -14.6510 h1         1 GXO       0.079700
    102 H44          0.9350     1.8120   -15.2750 h1         1 GXO       0.079700
    103 H45         -2.6780     4.4550   -14.8340 hn         1 GXO       0.343500
    104 H46         -2.9140     0.9530   -18.0450 hc         1 GXO       0.067200
    105 H47         -4.5800     0.5440   -18.4060 hc         1 GXO       0.067200
    106 H48         -4.0420     2.2220   -18.5220 hc         1 GXO       0.067200
    107 H49         -4.2390     0.3930   -14.6040 hc         1 GXO       0.067200
    108 H50         -4.7410    -0.5690   -15.9980 hc         1 GXO       0.067200
    109 H51         -3.0560    -0.1330   -15.8020 hc         1 GXO       0.067200
    110 F1          -3.4890    -2.3870   -13.7880 f          1 GXO      -0.129900
@<TRIPOS>BOND
     1     1     3 ar  
     2     1     7 ar  
     3     1    16 ar  
     4     2     3 ar  
     5     2    17 ar  
     6     2    59 1   
     7     3    60 1   
     8     4    16 ar  
     9     4    17 ar  
    10     4    18 1   
    11     5     6 1   
    12     5    18 1   
    13     5    47 1   
    14     5    61 1   
    15     6     9 1   
    16     6    62 1   
    17     6    63 1   
    18     7    13 ar  
    19     7    64 1   
    20     8    10 1   
    21     8    22 1   
    22     8    30 2   
    23     9    19 1   
    24     9    46 1   
    25     9    65 1   
    26    10    21 1   
    27    10    31 1   
    28    10    32 1   
    29    11    12 ar  
    30    11    13 ar  
    31    11   110 1   
    32    12    16 ar  
    33    12    66 1   
    34    13    14 1   
    35    14    15 1   
    36    15    67 1   
    37    15    68 1   
    38    15    69 1   
    39    19    20 2   
    40    19    21 1   
    41    21    70 1   
    42    22    23 1   
    43    22    71 1   
    44    23    24 2   
    45    23    25 1   
    46    23    29 2   
    47    25    26 1   
    48    25    27 1   
    49    25    28 1   
    50    26    72 1   
    51    26    73 1   
    52    26    74 1   
    53    27    28 1   
    54    27    75 1   
    55    27    76 1   
    56    28    77 1   
    57    28    78 1   
    58    31    32 1   
    59    31    33 1   
    60    31    79 1   
    61    32    80 1   
    62    32    81 1   
    63    33    34 2   
    64    33    82 1   
    65    34    35 1   
    66    34    83 1   
    67    35    36 1   
    68    35    84 1   
    69    35    85 1   
    70    36    37 1   
    71    36    86 1   
    72    36    87 1   
    73    37    38 1   
    74    37    39 1   
    75    37    88 1   
    76    38    89 1   
    77    38    90 1   
    78    38    91 1   
    79    39    40 1   
    80    39    92 1   
    81    39    93 1   
    82    40    41 1   
    83    40    43 1   
    84    40    94 1   
    85    41    42 1   
    86    41    95 1   
    87    41    96 1   
    88    42    97 1   
    89    42    98 1   
    90    42    99 1   
    91    43    44 1   
    92    43    48 1   
    93    43   100 1   
    94    44    45 2   
    95    44    46 1   
    96    46    47 1   
    97    47   101 1   
    98    47   102 1   
    99    48    49 1   
   100    48   103 1   
   101    49    50 2   
   102    49    51 1   
   103    51    52 1   
   104    52    53 1   
   105    52    54 1   
   106    52    55 1   
   107    53   104 1   
   108    53   105 1   
   109    53   106 1   
   110    54   107 1   
   111    54   108 1   
   112    54   109 1   
   113    55    56 1   
   114    55    57 1   
   115    55    58 1   
@<TRIPOS>SUBSTRUCTURE
     1 GXO         1 TEMP              0 ****  ****    0 ROOT
