@<TRIPOS>MOLECULE
GXP
   15    14     1     0     0
SMALL
bcc


@<TRIPOS>ATOM
      1 O           -3.6450    -0.7760     0.2720 o          1 GXP      -0.542100
      2 C           -2.7030    -0.6980    -0.4740 c          1 GXP       0.539900
      3 C1          -1.5590     0.2660    -0.2980 c3         1 GXP       0.038100
      4 O1          -1.7710     1.1740     0.7410 oh         1 GXP      -0.569800
      5 C2          -0.2720    -0.5410    -0.1430 c3         1 GXP      -0.224400
      6 C3           0.9800     0.2930    -0.2710 c          1 GXP       0.430100
      7 C4           2.3280    -0.3990     0.0950 c          1 GXP       0.860600
      8 O3           2.2270    -1.5470     0.5600 o          1 GXP      -0.799800
      9 O4           3.3460     0.2700    -0.1210 o          1 GXP      -0.799800
     10 H1          -2.6070    -1.3560    -1.3560 h4         1 GXP      -0.023800
     11 H2          -1.5000     0.8450    -1.2280 h1         1 GXP       0.095700
     12 H3          -1.9490     0.6820     1.5500 ho         1 GXP       0.402000
     13 H4          -0.2650    -1.0730     0.8120 hc         1 GXP       0.069200
     14 O2           0.9540     1.4330    -0.6670 o          1 GXP      -0.547100
     15 H8          -0.2120    -1.3270    -0.9050 hc         1 GXP       0.069200
@<TRIPOS>BOND
     1     1     2 2   
     2     2     3 1   
     3     2    10 1   
     4     3     4 1   
     5     3     5 1   
     6     3    11 1   
     7     4    12 1   
     8     5     6 1   
     9     5    13 1   
    10     5    15 1   
    11     6     7 1   
    12     6    14 2   
    13     7     8 1   
    14     7     9 1   
@<TRIPOS>SUBSTRUCTURE
     1 GXP         1 TEMP              0 ****  ****    0 ROOT
