@<TRIPOS>MOLECULE
GXP
   15    14     1     0     0
SMALL
No Charge or Current Charge


@<TRIPOS>ATOM
      1 O           -3.5550    -0.5990     0.7280 o          1 GXP      -0.542100
      2 C           -2.7830    -0.5710    -0.2280 c          1 GXP       0.539900
      3 C1          -1.4070     0.1600    -0.2010 c3         1 GXP       0.061300
      4 O1          -1.1010     0.7040     1.1040 oh         1 GXP      -0.632000
      5 C2          -0.2440    -0.7650    -0.6310 c3         1 GXP      -0.224400
      6 C3           1.0760     0.0210    -0.7530 c          1 GXP       0.430100
      7 C4           2.1190    -0.0560     0.4860 c          1 GXP       0.650000
      8 O3           2.2580    -1.1270     1.0730 o          1 GXP      -0.694500
      9 O4           2.7830     0.9440     0.7560 o          1 GXP      -0.694500
     10 H1          -3.0400    -1.0760    -1.1860 h4         1 GXP      -0.023800
     11 H2          -1.4930     0.9700    -0.9400 h1         1 GXP       0.095700
     12 H3          -1.9460     0.7230     1.6110 ho         1 GXP       0.441000
     13 H4          -0.1430    -1.5520     0.1250 hc         1 GXP       0.069200
     14 O2           1.3120     0.6740    -1.7740 o          1 GXP      -0.547100
     15 H8          -0.4860    -1.2060    -1.6060 hc         1 GXP       0.069200
@<TRIPOS>BOND
     1     1     2 2   
     2     2     3 1   
     3     2    10 1   
     4     3     4 1   
     5     3     5 1   
     6     3    11 1   
     7     4    12 1   
     8     5     6 1   
     9     5    13 1   
    10     5    15 1   
    11     6     7 1   
    12     6    14 2   
    13     7     8 1   
    14     7     9 1   
@<TRIPOS>SUBSTRUCTURE
     1 GXP         1 TEMP              0 ****  ****    0 ROOT
