@<TRIPOS>MOLECULE
GXQ
   44    44     1     0     0
SMALL
abcg2


@<TRIPOS>ATOM
      1 C1          -6.3340    -0.4470     0.3760 c3         1 GXQ       0.149800
      2 N1          -7.6120     0.0090    -0.1540 n8         1 GXQ      -0.994200
      3 C2          -5.1810     0.3440    -0.2220 c3         1 GXQ      -0.082900
      4 N2          -2.7460     0.6580    -0.2650 n7         1 GXQ      -0.861900
      5 C3          -3.8320    -0.1260     0.2970 c3         1 GXQ       0.158800
      6 N3           2.7700    -0.6450     0.2880 n7         1 GXQ      -0.861900
      7 C4          -1.4300     0.2920     0.2380 c6         1 GXQ       0.174500
      8 C5          -0.4280     1.3940    -0.0890 c6         1 GXQ      -0.074900
      9 C6           0.9780     1.0420     0.3820 c6         1 GXQ      -0.074900
     10 C7           1.4560    -0.2770    -0.2190 c6         1 GXQ       0.174500
     11 C8           0.4540    -1.3800     0.1060 c6         1 GXQ      -0.074900
     12 C9          -0.9530    -1.0280    -0.3620 c6         1 GXQ      -0.074900
     13 C11          5.2050    -0.3390     0.2570 c3         1 GXQ      -0.082900
     14 C12          6.3640     0.4590    -0.3210 c3         1 GXQ       0.149800
     15 N13          7.6370    -0.0230     0.1960 n8         1 GXQ      -0.994200
     16 H12         -6.2710    -0.3960     1.4720 h1         1 GXQ       0.025700
     17 H11         -6.2150    -1.5020     0.1150 h1         1 GXQ       0.025700
     18 H1          -8.3560    -0.5560     0.2350 hn         1 GXQ       0.391250
     19 H14         -7.7890     0.9510     0.1720 hn         1 GXQ       0.391250
     20 H22         -5.2070     0.2590    -1.3110 hc         1 GXQ       0.052450
     21 H23         -5.3100     1.4070     0.0150 hc         1 GXQ       0.052450
     22 H21         -2.9130     1.6310    -0.0300 hn         1 GXQ       0.407000
     23 H33         -3.8320    -0.0990     1.4000 h1         1 GXQ       0.026950
     24 H32         -3.6940    -1.1750     0.0210 h1         1 GXQ       0.026950
     25 H3           2.9380    -1.6170     0.0470 hn         1 GXQ       0.407000
     26 H41         -1.4480     0.1730     1.3380 h1         1 GXQ       0.020200
     27 H52         -0.4290     1.5620    -1.1720 hc         1 GXQ       0.046325
     28 H51         -0.7480     2.3330     0.3730 hc         1 GXQ       0.046325
     29 H61          1.6600     1.8560     0.1240 hc         1 GXQ       0.046325
     30 H62          0.9970     0.9530     1.4730 hc         1 GXQ       0.046325
     31 H71          1.4760    -0.1580    -1.3180 h1         1 GXQ       0.020200
     32 H82          0.7740    -2.3180    -0.3580 hc         1 GXQ       0.046325
     33 H81          0.4560    -1.5510     1.1880 hc         1 GXQ       0.046325
     34 H92         -1.6340    -1.8410    -0.1020 hc         1 GXQ       0.046325
     35 H91         -0.9730    -0.9390    -1.4540 hc         1 GXQ       0.046325
     36 H102         3.8660     0.1250    -1.3660 h1         1 GXQ       0.026950
     37 H101         3.7220     1.1880     0.0220 h1         1 GXQ       0.026950
     38 H111         5.2150    -0.2650     1.3490 hc         1 GXQ       0.052450
     39 H112         5.3410    -1.3970     0.0110 hc         1 GXQ       0.052450
     40 H121         6.3710     0.3440    -1.4080 h1         1 GXQ       0.025700
     41 H122         6.1910     1.5280    -0.1280 h1         1 GXQ       0.025700
     42 H4           8.3910     0.5110    -0.2190 hn         1 GXQ       0.391250
     43 H132         7.6860     0.1690     1.1890 hn         1 GXQ       0.391250
     44 C10          3.8600     0.1410    -0.2620 c3         1 GXQ       0.158800
@<TRIPOS>BOND
     1     1     2 1   
     2     1     3 1   
     3     1    16 1   
     4     1    17 1   
     5     2    18 1   
     6     2    19 1   
     7     3     5 1   
     8     3    20 1   
     9     3    21 1   
    10     4     5 1   
    11     4     7 1   
    12     4    22 1   
    13     5    23 1   
    14     5    24 1   
    15     6    10 1   
    16     6    25 1   
    17     6    44 1   
    18     7     8 1   
    19     7    12 1   
    20     7    26 1   
    21     8     9 1   
    22     8    27 1   
    23     8    28 1   
    24     9    10 1   
    25     9    29 1   
    26     9    30 1   
    27    10    11 1   
    28    10    31 1   
    29    11    12 1   
    30    11    32 1   
    31    11    33 1   
    32    12    34 1   
    33    12    35 1   
    34    13    14 1   
    35    13    38 1   
    36    13    39 1   
    37    13    44 1   
    38    14    15 1   
    39    14    40 1   
    40    14    41 1   
    41    15    42 1   
    42    15    43 1   
    43    36    44 1   
    44    37    44 1   
@<TRIPOS>SUBSTRUCTURE
     1 GXQ         1 TEMP              0 ****  ****    0 ROOT
