@<TRIPOS>MOLECULE
GXQ
   44    44     1     0     0
SMALL
No Charge or Current Charge


@<TRIPOS>ATOM
      1 C1          -6.4660    -0.4710     0.3200 c3         1 GXQ       0.149800
      2 N1          -7.7440     0.0510    -0.2010 n8         1 GXQ      -0.994200
      3 C2          -5.2660     0.3520    -0.1870 c3         1 GXQ      -0.082900
      4 N2          -2.8070     0.6330    -0.1720 n7         1 GXQ      -0.861900
      5 C3          -3.9220    -0.1830     0.3450 c3         1 GXQ       0.158800
      6 N3           2.8350    -0.6260     0.1920 n7         1 GXQ      -0.861900
      7 C4          -1.4420     0.2880     0.2800 c6         1 GXQ       0.174500
      8 C5          -0.4540     1.4100    -0.1340 c6         1 GXQ      -0.074900
      9 C6           0.9960     1.0870     0.3070 c6         1 GXQ      -0.074900
     10 C7           1.4700    -0.2810    -0.2590 c6         1 GXQ       0.174500
     11 C8           0.4820    -1.4020     0.1550 c6         1 GXQ      -0.074900
     12 C9          -0.9680    -1.0790    -0.2860 c6         1 GXQ      -0.074900
     13 C11          5.2940    -0.3460     0.2060 c3         1 GXQ      -0.082900
     14 C12          6.4940     0.4790    -0.2980 c3         1 GXQ       0.149800
     15 N13          7.7720    -0.0520     0.2120 n8         1 GXQ      -0.994200
     16 H12         -6.4970    -0.4440     1.4180 h1         1 GXQ       0.025700
     17 H11         -6.3590    -1.5170     0.0010 h1         1 GXQ       0.025700
     18 H1          -8.5170    -0.4890     0.2090 hn         1 GXQ       0.391250
     19 H14         -7.8930     0.9980     0.1660 hn         1 GXQ       0.391250
     20 H22         -5.2520     0.3320    -1.2840 hc         1 GXQ       0.052450
     21 H23         -5.3860     1.3980     0.1200 hc         1 GXQ       0.052450
     22 H21         -2.9890     1.6050     0.1030 hn         1 GXQ       0.407000
     23 H33         -3.9370    -0.1570     1.4430 h1         1 GXQ       0.026950
     24 H32         -3.8130    -1.2310     0.0350 h1         1 GXQ       0.026950
     25 H3           3.0170    -1.5980    -0.0820 hn         1 GXQ       0.407000
     26 H41         -1.4460     0.2310     1.3790 h1         1 GXQ       0.020200
     27 H52         -0.4820     1.5480    -1.2240 hc         1 GXQ       0.046325
     28 H51         -0.7650     2.3650     0.3100 hc         1 GXQ       0.046325
     29 H61          1.6580     1.8920    -0.0350 hc         1 GXQ       0.046325
     30 H62          1.0550     1.0770     1.4040 hc         1 GXQ       0.046325
     31 H71          1.4740    -0.2240    -1.3580 h1         1 GXQ       0.020200
     32 H82          0.7930    -2.3580    -0.2890 hc         1 GXQ       0.046325
     33 H81          0.5100    -1.5410     1.2450 hc         1 GXQ       0.046325
     34 H92         -1.6300    -1.8850     0.0570 hc         1 GXQ       0.046325
     35 H91         -1.0270    -1.0700    -1.3830 hc         1 GXQ       0.046325
     36 H102         3.9640     0.1650    -1.4230 h1         1 GXQ       0.026950
     37 H101         3.8420     1.2380    -0.0140 h1         1 GXQ       0.026950
     38 H111         5.2780    -0.3320     1.3030 hc         1 GXQ       0.052450
     39 H112         5.4160    -1.3900    -0.1060 hc         1 GXQ       0.052450
     40 H121         6.5200     0.4600    -1.3960 h1         1 GXQ       0.025700
     41 H122         6.3900     1.5230     0.0300 h1         1 GXQ       0.025700
     42 H4           8.5370     0.5620    -0.0970 hn         1 GXQ       0.391250
     43 H132         7.7890     0.0420     1.2350 hn         1 GXQ       0.391250
     44 C10          3.9500     0.1900    -0.3250 c3         1 GXQ       0.158800
@<TRIPOS>BOND
     1     1     2 1   
     2     1     3 1   
     3     1    16 1   
     4     1    17 1   
     5     2    18 1   
     6     2    19 1   
     7     3     5 1   
     8     3    20 1   
     9     3    21 1   
    10     4     5 1   
    11     4     7 1   
    12     4    22 1   
    13     5    23 1   
    14     5    24 1   
    15     6    10 1   
    16     6    25 1   
    17     6    44 1   
    18     7     8 1   
    19     7    12 1   
    20     7    26 1   
    21     8     9 1   
    22     8    27 1   
    23     8    28 1   
    24     9    10 1   
    25     9    29 1   
    26     9    30 1   
    27    10    11 1   
    28    10    31 1   
    29    11    12 1   
    30    11    32 1   
    31    11    33 1   
    32    12    34 1   
    33    12    35 1   
    34    13    14 1   
    35    13    38 1   
    36    13    39 1   
    37    13    44 1   
    38    14    15 1   
    39    14    40 1   
    40    14    41 1   
    41    15    42 1   
    42    15    43 1   
    43    36    44 1   
    44    37    44 1   
@<TRIPOS>SUBSTRUCTURE
     1 GXQ         1 TEMP              0 ****  ****    0 ROOT
