@<TRIPOS>MOLECULE
GXR
   57    60     1     0     0
SMALL
No Charge or Current Charge


@<TRIPOS>ATOM
      1 C5          90.2110   119.0990   115.8590 c5         1 GXR       0.086000
      2 C6          92.1340   119.6380   114.3010 c5         1 GXR      -0.066400
      3 C9          91.0030   122.8620   117.1980 c6         1 GXR       0.177300
      4 C4          92.5590   122.7790   116.8760 c6         1 GXR       0.198000
      5 C3          92.8180   121.9790   115.5350 c6         1 GXR      -0.042700
      6 O2          90.2830   123.8010   116.3850 oh         1 GXR      -0.664000
      7 C1          90.5450   120.6630   115.8040 c5         1 GXR      -0.019000
      8 C7          90.2950   121.4660   117.1350 c6         1 GXR      -0.101400
      9 C10         93.3270   124.1800   116.8680 c6         1 GXR       0.014400
     10 C11         94.3380   121.7990   115.2490 c6         1 GXR      -0.069400
     11 C12         89.7520   121.3750   114.6440 c3         1 GXR      -0.094100
     12 C13         95.1000   123.1400   115.2780 c6         1 GXR      -0.046200
     13 C14         94.8180   123.9120   116.5640 c2         1 GXR      -0.045400
     14 C15         88.6370   118.8870   115.6650 c          1 GXR       0.517100
     15 C16         90.5470   117.7820   113.4670 c3         1 GXR      -0.082100
     16 C17         92.8500   125.2140   115.7900 c3         1 GXR      -0.070100
     17 C18         93.1530   124.9040   118.2120 c2         1 GXR      -0.150200
     18 C19         95.8230   124.3100   117.3790 ce         1 GXR      -0.289200
     19 C2          92.0880   120.5750   115.5580 c5         1 GXR      -0.070700
     20 C20         87.7710   118.9700   116.9580 c3         1 GXR       0.064600
     21 C21         94.1850   125.2860   118.9980 ce         1 GXR      -0.284200
     22 C22         95.6030   125.0300   118.6540 c          1 GXR       0.569500
     23 C8          91.1530   118.4860   114.7050 c5         1 GXR      -0.072700
     24 O1          90.6050   118.5070   117.1180 oh         1 GXR      -0.657000
     25 O3          88.0670   118.6440   114.6040 o          1 GXR      -0.508100
     26 O4          86.4220   119.4500   116.7130 oh         1 GXR      -0.641000
     27 O5          96.5260   125.3850   119.3730 o          1 GXR      -0.526100
     28 Cl1         93.3130   121.8150   118.2980 cl         1 GXR      -0.293000
     29 H1          93.1440   119.2550   114.1130 hc         1 GXR       0.050200
     30 H2          91.8290   120.1570   113.3860 hc         1 GXR       0.050200
     31 H3          90.9180   123.1940   118.2430 h1         1 GXR       0.050700
     32 H4          92.4010   122.5560   114.7020 hc         1 GXR       0.069700
     33 H5          89.3710   123.8500   116.7430 ho         1 GXR       0.450000
     34 H6          89.2180   121.5990   117.3030 hc         1 GXR       0.062700
     35 H7          90.6440   120.8790   117.9930 hc         1 GXR       0.062700
     36 H8          94.4820   121.3290   114.2670 hc         1 GXR       0.053200
     37 H9          94.7860   121.1120   115.9800 hc         1 GXR       0.053200
     38 H10         88.7250   121.6110   114.9490 hc         1 GXR       0.046033
     39 H11         90.2150   122.3130   114.3230 hc         1 GXR       0.046033
     40 H12         89.6700   120.7560   113.7450 hc         1 GXR       0.046033
     41 H13         96.1770   122.9470   115.1750 hc         1 GXR       0.055700
     42 H14         94.8220   123.7470   114.4060 hc         1 GXR       0.055700
     43 H16         89.9070   116.9390   113.7550 hc         1 GXR       0.043367
     44 H17         89.9620   118.4740   112.8510 hc         1 GXR       0.043367
     45 H18         91.3430   117.3810   112.8290 hc         1 GXR       0.043367
     46 H19         91.8990   125.6880   116.0550 hc         1 GXR       0.047700
     47 H20         93.5750   126.0320   115.6950 hc         1 GXR       0.047700
     48 H21         92.7320   124.7740   114.7950 hc         1 GXR       0.047700
     49 H22         92.1280   125.1320   118.5130 ha         1 GXR       0.185000
     50 H24         96.8630   124.1050   117.1380 ha         1 GXR       0.198000
     51 H26         92.5720   120.0410   116.3850 hc         1 GXR       0.079700
     52 H27         87.7510   117.9620   117.3920 h1         1 GXR       0.068700
     53 H28         88.2790   119.6160   117.6820 h1         1 GXR       0.068700
     54 H29         94.0170   125.8100   119.9380 ha         1 GXR       0.200000
     55 H31         91.7630   117.6930   115.1550 hc         1 GXR       0.042700
     56 H32         90.7490   117.5470   116.9650 ho         1 GXR       0.450000
     57 H33         86.1080   119.0160   115.8850 ho         1 GXR       0.454000
@<TRIPOS>BOND
     1     1     7 1   
     2     1    14 1   
     3     1    23 1   
     4     1    24 1   
     5     2    19 1   
     6     2    23 1   
     7     2    29 1   
     8     2    30 1   
     9     3     4 1   
    10     3     6 1   
    11     3     8 1   
    12     3    31 1   
    13     4     5 1   
    14     4     9 1   
    15     4    28 1   
    16     5    10 1   
    17     5    19 1   
    18     5    32 1   
    19     6    33 1   
    20     7     8 1   
    21     7    11 1   
    22     7    19 1   
    23     8    34 1   
    24     8    35 1   
    25     9    13 1   
    26     9    16 1   
    27     9    17 1   
    28    10    12 1   
    29    10    36 1   
    30    10    37 1   
    31    11    38 1   
    32    11    39 1   
    33    11    40 1   
    34    12    13 1   
    35    12    41 1   
    36    12    42 1   
    37    13    18 2   
    38    14    20 1   
    39    14    25 2   
    40    15    23 1   
    41    15    43 1   
    42    15    44 1   
    43    15    45 1   
    44    16    46 1   
    45    16    47 1   
    46    16    48 1   
    47    17    21 2   
    48    17    49 1   
    49    18    22 1   
    50    18    50 1   
    51    19    51 1   
    52    20    26 1   
    53    20    52 1   
    54    20    53 1   
    55    21    22 1   
    56    21    54 1   
    57    22    27 2   
    58    23    55 1   
    59    24    56 1   
    60    26    57 1   
@<TRIPOS>SUBSTRUCTURE
     1 GXR         1 TEMP              0 ****  ****    0 ROOT
