@<TRIPOS>MOLECULE
GXR
   57    60     1     0     0
SMALL
abcg2


@<TRIPOS>ATOM
      1 C5          90.1830   119.2050   115.8370 c5         1 GXR       0.086000
      2 C6          92.1760   119.6470   114.4150 c5         1 GXR      -0.066400
      3 C9          91.0440   122.8290   117.2020 c6         1 GXR       0.177300
      4 C4          92.5430   122.7460   116.8200 c6         1 GXR       0.198000
      5 C3          92.8080   121.9340   115.5390 c6         1 GXR      -0.042700
      6 O2          90.4470   123.8000   116.3780 oh         1 GXR      -0.664000
      7 C1          90.5690   120.7250   115.8200 c5         1 GXR      -0.019000
      8 C7          90.3300   121.4710   117.1300 c6         1 GXR      -0.101400
      9 C10         93.3060   124.1210   116.8010 c6         1 GXR       0.014400
     10 C11         94.2990   121.7400   115.2750 c6         1 GXR      -0.069400
     11 C12         89.8780   121.4300   114.6440 c3         1 GXR      -0.094100
     12 C13         95.0950   123.0410   115.3550 c6         1 GXR      -0.046200
     13 C14         94.7690   123.8190   116.5900 c2         1 GXR      -0.045400
     14 C15         88.6750   118.9990   115.7330 c          1 GXR       0.517100
     15 C16         90.4280   118.0840   113.4120 c3         1 GXR      -0.082100
     16 C17         92.8880   125.0790   115.6510 c3         1 GXR      -0.070100
     17 C18         93.0500   124.8780   118.0660 c2         1 GXR      -0.150200
     18 C19         95.7180   124.2490   117.4300 ce         1 GXR      -0.289200
     19 C2          92.0840   120.5960   115.5990 c5         1 GXR      -0.070700
     20 C20         87.9310   118.6960   117.0260 c3         1 GXR       0.064600
     21 C21         94.0050   125.3030   118.8910 ce         1 GXR      -0.284200
     22 C22         95.4190   125.0050   118.6440 c          1 GXR       0.569500
     23 C8          91.0760   118.5920   114.6930 c5         1 GXR      -0.072700
     24 O1          90.6090   118.6940   117.0850 oh         1 GXR      -0.657000
     25 O3          88.0520   119.1260   114.7050 o          1 GXR      -0.508100
     26 O4          86.5570   118.5500   116.8320 oh         1 GXR      -0.641000
     27 O5          96.2950   125.3740   119.4130 o          1 GXR      -0.526100
     28 CL1         93.2860   121.8320   118.2310 cl         1 GXR      -0.293000
     29 H1          93.1550   119.1750   114.3210 hc         1 GXR       0.050200
     30 H2          91.9840   120.1670   113.4720 hc         1 GXR       0.050200
     31 H3          90.9910   123.1520   118.2500 h1         1 GXR       0.050700
     32 H4          92.3960   122.5250   114.7140 hc         1 GXR       0.069700
     33 H5          89.4920   123.7440   116.4880 ho         1 GXR       0.450000
     34 H6          89.2610   121.6510   117.3010 hc         1 GXR       0.062700
     35 H7          90.6720   120.8710   117.9720 hc         1 GXR       0.062700
     36 H8          94.4300   121.3080   114.2820 hc         1 GXR       0.053200
     37 H9          94.7080   121.0170   115.9850 hc         1 GXR       0.053200
     38 H10         88.8510   121.6950   114.8940 hc         1 GXR       0.046033
     39 H11         90.3850   122.3530   114.3800 hc         1 GXR       0.046033
     40 H12         89.8420   120.8200   113.7440 hc         1 GXR       0.046033
     41 H13         96.1650   122.8320   115.3160 hc         1 GXR       0.055700
     42 H14         94.8670   123.6570   114.4790 hc         1 GXR       0.055700
     43 H16         89.6870   117.3070   113.5970 hc         1 GXR       0.043367
     44 H17         89.9550   118.8740   112.8310 hc         1 GXR       0.043367
     45 H18         91.2070   117.6430   112.7870 hc         1 GXR       0.043367
     46 H19         91.9290   125.5440   115.8470 hc         1 GXR       0.047700
     47 H20         93.6390   125.8670   115.5730 hc         1 GXR       0.047700
     48 H21         92.8310   124.5810   114.6860 hc         1 GXR       0.047700
     49 H22         92.0170   125.1350   118.2710 ha         1 GXR       0.185000
     50 H24         96.7620   124.0310   117.2300 ha         1 GXR       0.198000
     51 H26         92.4900   120.0610   116.4620 hc         1 GXR       0.079700
     52 H27         88.3010   117.7640   117.4590 h1         1 GXR       0.068700
     53 H28         88.1750   119.4860   117.7530 h1         1 GXR       0.068700
     54 H29         93.7610   125.8830   119.7730 ha         1 GXR       0.200000
     55 H31         91.5610   117.7220   115.1450 hc         1 GXR       0.042700
     56 H32         90.7040   117.7380   117.0190 ho         1 GXR       0.450000
     57 H33         86.2370   119.2870   116.3020 ho         1 GXR       0.454000
@<TRIPOS>BOND
     1     1     7 1   
     2     1    14 1   
     3     1    23 1   
     4     1    24 1   
     5     2    19 1   
     6     2    23 1   
     7     2    29 1   
     8     2    30 1   
     9     3     4 1   
    10     3     6 1   
    11     3     8 1   
    12     3    31 1   
    13     4     5 1   
    14     4     9 1   
    15     4    28 1   
    16     5    10 1   
    17     5    19 1   
    18     5    32 1   
    19     6    33 1   
    20     7     8 1   
    21     7    11 1   
    22     7    19 1   
    23     8    34 1   
    24     8    35 1   
    25     9    13 1   
    26     9    16 1   
    27     9    17 1   
    28    10    12 1   
    29    10    36 1   
    30    10    37 1   
    31    11    38 1   
    32    11    39 1   
    33    11    40 1   
    34    12    13 1   
    35    12    41 1   
    36    12    42 1   
    37    13    18 2   
    38    14    20 1   
    39    14    25 2   
    40    15    23 1   
    41    15    43 1   
    42    15    44 1   
    43    15    45 1   
    44    16    46 1   
    45    16    47 1   
    46    16    48 1   
    47    17    21 2   
    48    17    49 1   
    49    18    22 1   
    50    18    50 1   
    51    19    51 1   
    52    20    26 1   
    53    20    52 1   
    54    20    53 1   
    55    21    22 1   
    56    21    54 1   
    57    22    27 2   
    58    23    55 1   
    59    24    56 1   
    60    26    57 1   
@<TRIPOS>SUBSTRUCTURE
     1 GXR         1 TEMP              0 ****  ****    0 ROOT
