@<TRIPOS>MOLECULE
GXS
   15    14     1     0     0
SMALL
bcc


@<TRIPOS>ATOM
      1 O           -3.6630     0.7440     0.2720 o          1 GXS      -0.542100
      2 C           -2.7140     0.6720    -0.4650 c          1 GXS       0.539900
      3 C1          -1.5730    -0.2970    -0.2880 c3         1 GXS       0.039100
      4 O1          -1.7960    -1.2140     0.7410 oh         1 GXS      -0.569800
      5 C2          -0.2860     0.5060    -0.1150 c3         1 GXS      -0.224400
      6 C3           0.9660    -0.3260    -0.2490 c          1 GXS       0.430100
      7 C4           2.3120     0.3610     0.1300 c          1 GXS       0.860600
      8 O3           3.3320    -0.2980    -0.1080 o          1 GXS      -0.799800
      9 O4           2.2100     1.4960     0.6240 o          1 GXS      -0.799800
     10 H1          -2.6070     1.3400    -1.3380 h4         1 GXS      -0.022800
     11 H2          -1.5090    -0.8660    -1.2230 h1         1 GXS       0.095700
     12 H3          -2.0050    -0.7300     1.5480 ho         1 GXS       0.402000
     13 H4          -0.2230     1.3030    -0.8660 hc         1 GXS       0.069700
     14 O2           0.9400    -1.4620    -0.6560 o          1 GXS      -0.547100
     15 H8          -0.2820     1.0260     0.8470 hc         1 GXS       0.069700
@<TRIPOS>BOND
     1     1     2 2   
     2     2     3 1   
     3     2    10 1   
     4     3     4 1   
     5     3     5 1   
     6     3    11 1   
     7     4    12 1   
     8     5     6 1   
     9     5    13 1   
    10     5    15 1   
    11     6     7 1   
    12     6    14 2   
    13     7     8 1   
    14     7     9 1   
@<TRIPOS>SUBSTRUCTURE
     1 GXS         1 TEMP              0 ****  ****    0 ROOT
