@<TRIPOS>MOLECULE
GXS
   15    14     1     0     0
SMALL
No Charge or Current Charge


@<TRIPOS>ATOM
      1 O           -3.5800     0.5500     0.7240 o          1 GXS      -0.542100
      2 C           -2.7990     0.5370    -0.2250 c          1 GXS       0.539900
      3 C1          -1.4220    -0.1920    -0.1960 c3         1 GXS       0.062300
      4 O1          -1.1280    -0.7560     1.1040 oh         1 GXS      -0.632000
      5 C2          -0.2560     0.7400    -0.6010 c3         1 GXS      -0.224400
      6 C3           1.0660    -0.0430    -0.7230 c          1 GXS       0.430100
      7 C4           2.0970     0.0160     0.5270 c          1 GXS       0.650000
      8 O3           2.7600    -0.9870     0.7880 o          1 GXS      -0.694500
      9 O4           2.2290     1.0780     1.1330 o          1 GXS      -0.694500
     10 H1          -3.0470     1.0580    -1.1760 h4         1 GXS      -0.022800
     11 H2          -1.5000    -0.9910    -0.9480 h1         1 GXS       0.095700
     12 H3          -1.9780    -0.7860     1.6010 ho         1 GXS       0.441000
     13 H4          -0.4900     1.1960    -1.5710 hc         1 GXS       0.069700
     14 O2           1.3120    -0.6800    -1.7510 o          1 GXS      -0.547100
     15 H8          -0.1630     1.5150     0.1680 hc         1 GXS       0.069700
@<TRIPOS>BOND
     1     1     2 2   
     2     2     3 1   
     3     2    10 1   
     4     3     4 1   
     5     3     5 1   
     6     3    11 1   
     7     4    12 1   
     8     5     6 1   
     9     5    13 1   
    10     5    15 1   
    11     6     7 1   
    12     6    14 2   
    13     7     8 1   
    14     7     9 1   
@<TRIPOS>SUBSTRUCTURE
     1 GXS         1 TEMP              0 ****  ****    0 ROOT
