@<TRIPOS>MOLECULE
GXT
    6     5     1     0     0
SMALL
No Charge or Current Charge


@<TRIPOS>ATOM
      1 O1          -1.8070     0.1760    -0.0010 o          1 GXT      -0.470600
      2 C1          -0.7080    -0.3800     0.0190 c          1 GXT       0.454400
      3 C            0.6440     0.4060    -0.0400 c          1 GXT       0.454400
      4 O            1.7430    -0.1490    -0.0190 o          1 GXT      -0.470600
      5 H1          -0.6280    -1.4870     0.0820 h4         1 GXT       0.016200
      6 H2           0.5640     1.5140    -0.1020 h4         1 GXT       0.016200
@<TRIPOS>BOND
     1     1     2 2   
     2     2     3 1   
     3     2     5 1   
     4     3     4 2   
     5     3     6 1   
@<TRIPOS>SUBSTRUCTURE
     1 GXT         1 TEMP              0 ****  ****    0 ROOT
