@<TRIPOS>MOLECULE
GXT
    6     5     1     0     0
SMALL
bcc


@<TRIPOS>ATOM
      1 O1          -1.7410     0.2020    -0.0100 o          1 GXT      -0.470600
      2 C1          -0.6850    -0.3700     0.0190 c          1 GXT       0.454400
      3 C            0.6220     0.3970    -0.0380 c          1 GXT       0.454400
      4 O            1.6760    -0.1760    -0.0240 o          1 GXT      -0.470600
      5 H1          -0.5850    -1.4650     0.0860 h4         1 GXT       0.016200
      6 H2           0.5200     1.4920    -0.0950 h4         1 GXT       0.016200
@<TRIPOS>BOND
     1     1     2 2   
     2     2     3 1   
     3     2     5 1   
     4     3     4 2   
     5     3     6 1   
@<TRIPOS>SUBSTRUCTURE
     1 GXT         1 TEMP              0 ****  ****    0 ROOT
