@<TRIPOS>MOLECULE
GXU
   46    49     1     0     0
SMALL
bcc


@<TRIPOS>ATOM
      1 N5          66.1640   -26.9760    11.7750 na         1 GXU       0.016900
      2 N7          65.0810   -25.7330    16.2210 nb         1 GXU      -0.605000
      3 C8          65.0260   -26.5710     9.9470 cc         1 GXU      -0.137900
      4 C10         66.9670   -26.3070    10.9410 cc         1 GXU       0.078100
      5 C12         66.5030   -27.3260    13.1450 c3         1 GXU      -0.004000
      6 C13         63.9100   -26.5680     8.9920 c          1 GXU       0.623300
      7 C14         63.7320   -27.7480    11.7240 c          1 GXU       0.622300
      8 C15         62.6760   -27.2290     9.4900 ca         1 GXU      -0.143600
      9 C16         62.5890   -27.7810    10.7800 ca         1 GXU      -0.142600
     10 C17         68.3620   -25.9430    11.2580 c3         1 GXU      -0.057800
     11 C18         66.4210   -23.8110     8.8820 c3         1 GXU       0.113400
     12 C19         65.9480   -26.2960    14.0910 ca         1 GXU       0.234300
     13 C21         61.4040   -28.3730    11.1970 ca         1 GXU      -0.065000
     14 C22         60.3980   -27.8860     9.0690 ca         1 GXU      -0.093000
     15 C23         60.3120   -28.4270    10.3430 ca         1 GXU      -0.093000
     16 C24         65.5400   -26.6410    15.3740 ca         1 GXU       0.338900
     17 C9          64.9450   -27.1320    11.1790 cd         1 GXU      -0.126900
     18 C20         61.5750   -27.2870     8.6450 ca         1 GXU      -0.065000
     19 C25         66.5410   -22.0780    10.4550 c3         1 GXU       0.121700
     20 C26         65.4190   -24.1380    14.5040 ca         1 GXU       0.295900
     21 C27         65.0200   -24.4810    15.7880 ca         1 GXU       0.321900
     22 N4          66.2950   -26.0690     9.8120 na         1 GXU       0.018900
     23 N6          65.8840   -25.0470    13.6600 nb         1 GXU      -0.657000
     24 O1          63.9900   -26.0680     7.8940 o          1 GXU      -0.476100
     25 O2          63.6780   -28.1760    12.8540 o          1 GXU      -0.474100
     26 O3          66.9190   -23.3910    10.1200 os         1 GXU      -0.432600
     27 H1          66.1300   -28.3230    13.3640 h1         1 GXU       0.103200
     28 H2          67.5890   -27.3700    13.2250 h1         1 GXU       0.103200
     29 H3          68.3860   -25.3230    12.1530 hc         1 GXU       0.097700
     30 H4          68.9470   -26.8440    11.4430 hc         1 GXU       0.097700
     31 H5          68.8340   -25.3890    10.4550 hc         1 GXU       0.097700
     32 H6          66.8500   -23.2420     8.0460 h1         1 GXU       0.061200
     33 H7          65.3310   -23.6920     8.8270 h1         1 GXU       0.061200
     34 H8          61.3340   -28.7950    12.1900 ha         1 GXU       0.167000
     35 H9          59.5470   -27.9270     8.4030 ha         1 GXU       0.161000
     36 H10         59.3940   -28.8920    10.6760 ha         1 GXU       0.161000
     37 H11         65.5850   -27.6700    15.7150 h4         1 GXU       0.046100
     38 H12         66.3760   -25.6550     7.7720 h1         1 GXU       0.102700
     39 H13         67.8730   -25.3980     8.6400 h1         1 GXU       0.102700
     40 H14         61.6360   -26.8610     7.6530 ha         1 GXU       0.167000
     41 H15         66.9410   -21.8610    11.4440 h1         1 GXU       0.044700
     42 H16         66.9420   -21.3440     9.7480 h1         1 GXU       0.044700
     43 H17         65.4520   -21.9630    10.4850 h1         1 GXU       0.044700
     44 H18         65.3610   -23.1140    14.1550 h4         1 GXU       0.043100
     45 H19         64.6420   -23.7300    16.4700 h4         1 GXU       0.052100
     46 C11         66.7950   -25.2670     8.6940 c3         1 GXU       0.030300
@<TRIPOS>BOND
     1     1     4 2   
     2     1     5 1   
     3     1    17 1   
     4     2    16 ar  
     5     2    21 ar  
     6     3     6 1   
     7     3    17 2   
     8     3    22 1   
     9     4    10 1   
    10     4    22 1   
    11     5    12 1   
    12     5    27 1   
    13     5    28 1   
    14     6     8 1   
    15     6    24 2   
    16     7     9 1   
    17     7    17 1   
    18     7    25 2   
    19     8     9 ar  
    20     8    18 ar  
    21     9    13 ar  
    22    10    29 1   
    23    10    30 1   
    24    10    31 1   
    25    11    26 1   
    26    11    32 1   
    27    11    33 1   
    28    11    46 1   
    29    12    16 ar  
    30    12    23 ar  
    31    13    15 ar  
    32    13    34 1   
    33    14    15 ar  
    34    14    18 ar  
    35    14    35 1   
    36    15    36 1   
    37    16    37 1   
    38    18    40 1   
    39    19    26 1   
    40    19    41 1   
    41    19    42 1   
    42    19    43 1   
    43    20    21 ar  
    44    20    23 ar  
    45    20    44 1   
    46    21    45 1   
    47    22    46 1   
    48    38    46 1   
    49    39    46 1   
@<TRIPOS>SUBSTRUCTURE
     1 GXU         1 TEMP              0 ****  ****    0 ROOT
