@<TRIPOS>MOLECULE
GXU
   46    49     1     0     0
SMALL
No Charge or Current Charge


@<TRIPOS>ATOM
      1 N5          66.1410   -26.8630    11.8850 na         1 GXU       0.038300
      2 N7          64.6180   -26.1210    16.3900 nb         1 GXU      -0.605000
      3 C8          65.0280   -26.5270     9.9890 cc         1 GXU      -0.188600
      4 C10         66.9940   -26.1670    11.0580 cc         1 GXU       0.027400
      5 C12         66.4720   -27.3160    13.2550 c3         1 GXU       0.025300
      6 C13         63.9070   -26.5620     9.0150 c          1 GXU       0.623300
      7 C14         63.6970   -27.7470    11.7580 c          1 GXU       0.622300
      8 C15         62.6390   -27.2440     9.4880 ca         1 GXU      -0.143600
      9 C16         62.5370   -27.8080    10.7920 ca         1 GXU      -0.142600
     10 C17         68.4020   -25.7190    11.3840 c3         1 GXU      -0.057800
     11 C18         66.4250   -23.8300     8.5330 c3         1 GXU       0.136600
     12 C19         65.9410   -26.4040    14.3550 ca         1 GXU       0.234300
     13 C21         61.3320   -28.4320    11.1860 ca         1 GXU      -0.047000
     14 C22         60.3380   -27.9460     9.0230 ca         1 GXU      -0.075000
     15 C23         60.2400   -28.5010    10.3070 ca         1 GXU      -0.075000
     16 C24         65.0950   -26.9090    15.3860 ca         1 GXU       0.338900
     17 C9          64.9270   -27.0780    11.2570 cd         1 GXU      -0.177600
     18 C20         61.5280   -27.3230     8.6160 ca         1 GXU      -0.047000
     19 C25         66.6330   -21.7050     9.6800 c3         1 GXU       0.144900
     20 C26         65.8550   -24.3110    15.3240 ca         1 GXU       0.295900
     21 C27         65.0060   -24.8150    16.3450 ca         1 GXU       0.321900
     22 N4          66.3120   -25.9760     9.8610 na         1 GXU       0.091000
     23 N6          66.3350   -25.0980    14.3190 nb         1 GXU      -0.657000
     24 O1          63.9900   -26.0730     7.8960 o          1 GXU      -0.476100
     25 O2          63.6150   -28.2210    12.8840 o          1 GXU      -0.474100
     26 O3          66.9690   -23.1040     9.6520 os         1 GXU      -0.479000
     27 H1          66.0860   -28.3320    13.3940 h1         1 GXU       0.103200
     28 H2          67.5610   -27.3870    13.3580 h1         1 GXU       0.103200
     29 H3          68.4940   -25.4190    12.4340 hc         1 GXU       0.097700
     30 H4          69.1210   -26.5250    11.1990 hc         1 GXU       0.097700
     31 H5          68.7050   -24.8530    10.7860 hc         1 GXU       0.097700
     32 H6          66.8060   -23.4250     7.5860 h1         1 GXU       0.061200
     33 H7          65.3290   -23.7640     8.5180 h1         1 GXU       0.061200
     34 H8          61.2340   -28.8690    12.1790 ha         1 GXU       0.149000
     35 H9          59.4910   -27.9990     8.3410 ha         1 GXU       0.143000
     36 H10         59.3170   -28.9840    10.6220 ha         1 GXU       0.143000
     37 H11         64.8010   -27.9570    15.4070 h4         1 GXU       0.046100
     38 H12         66.5180   -25.8540     7.7710 h1         1 GXU       0.102700
     39 H13         67.9470   -25.3660     8.6690 h1         1 GXU       0.102700
     40 H14         61.5810   -26.8990     7.6140 ha         1 GXU       0.149000
     41 H15         67.0820   -21.2220    10.5570 h1         1 GXU       0.044700
     42 H16         67.0060   -21.1940     8.7820 h1         1 GXU       0.044700
     43 H17         65.5460   -21.5640     9.7330 h1         1 GXU       0.044700
     44 H18         66.1520   -23.2630    15.3140 h4         1 GXU       0.043100
     45 H19         64.6390   -24.1630    17.1350 h4         1 GXU       0.052100
     46 C11         66.8530   -25.3060     8.6590 c3         1 GXU       0.059600
@<TRIPOS>BOND
     1     1     4 2   
     2     1     5 1   
     3     1    17 1   
     4     2    16 ar  
     5     2    21 ar  
     6     3     6 1   
     7     3    17 2   
     8     3    22 1   
     9     4    10 1   
    10     4    22 1   
    11     5    12 1   
    12     5    27 1   
    13     5    28 1   
    14     6     8 1   
    15     6    24 2   
    16     7     9 1   
    17     7    17 1   
    18     7    25 2   
    19     8     9 ar  
    20     8    18 ar  
    21     9    13 ar  
    22    10    29 1   
    23    10    30 1   
    24    10    31 1   
    25    11    26 1   
    26    11    32 1   
    27    11    33 1   
    28    11    46 1   
    29    12    16 ar  
    30    12    23 ar  
    31    13    15 ar  
    32    13    34 1   
    33    14    15 ar  
    34    14    18 ar  
    35    14    35 1   
    36    15    36 1   
    37    16    37 1   
    38    18    40 1   
    39    19    26 1   
    40    19    41 1   
    41    19    42 1   
    42    19    43 1   
    43    20    21 ar  
    44    20    23 ar  
    45    20    44 1   
    46    21    45 1   
    47    22    46 1   
    48    38    46 1   
    49    39    46 1   
@<TRIPOS>SUBSTRUCTURE
     1 GXU         1 TEMP              0 ****  ****    0 ROOT
