@<TRIPOS>MOLECULE
GXV
   12    11     1     0     0
SMALL
No Charge or Current Charge


@<TRIPOS>ATOM
      1 O2           2.4520     0.1170     0.0220 oh         1 GXV      -0.640000
      2 C            1.1740     0.6660    -0.3360 c3         1 GXV       0.137600
      3 C1           0.0290    -0.0370     0.4430 c3         1 GXV       0.050300
      4 O1          -0.0540    -1.4500     0.0910 oh         1 GXV      -0.621000
      5 C2          -1.3060     0.7180     0.2140 c          1 GXV       0.535900
      6 O           -2.2600     0.2530    -0.4060 o          1 GXV      -0.499100
      7 H1           3.1260     0.5670    -0.5350 ho         1 GXV       0.445000
      8 H2           1.1550     1.7400    -0.1060 h1         1 GXV       0.022200
      9 H3           1.0000     0.5580    -1.4160 h1         1 GXV       0.022200
     10 H4           0.2470     0.0720     1.5140 h1         1 GXV       0.103700
     11 H5          -0.5210    -1.5120    -0.7740 ho         1 GXV       0.451000
     12 H6          -1.3640     1.7300     0.6740 h4         1 GXV      -0.006800
@<TRIPOS>BOND
     1     1     2 1   
     2     1     7 1   
     3     2     3 1   
     4     2     8 1   
     5     2     9 1   
     6     3     4 1   
     7     3     5 1   
     8     3    10 1   
     9     4    11 1   
    10     5     6 2   
    11     5    12 1   
@<TRIPOS>SUBSTRUCTURE
     1 GXV         1 TEMP              0 ****  ****    0 ROOT
