@<TRIPOS>MOLECULE
GXV
   12    11     1     0     0
SMALL
abcg2


@<TRIPOS>ATOM
      1 O2           2.3780     0.1230     0.0490 oh         1 GXV      -0.640000
      2 C            1.1490     0.6870    -0.3310 c3         1 GXV       0.137600
      3 C1           0.0350    -0.0450     0.4130 c3         1 GXV       0.050300
      4 O1          -0.0600    -1.3990     0.0910 oh         1 GXV      -0.621000
      5 C2          -1.2600     0.7000     0.2060 c          1 GXV       0.535900
      6 O           -2.2360     0.2120    -0.3030 o          1 GXV      -0.499100
      7 H1           3.0640     0.5050    -0.5050 ho         1 GXV       0.445000
      8 H2           1.0960     1.7560    -0.0860 h1         1 GXV       0.022200
      9 H3           0.9730     0.6000    -1.4120 h1         1 GXV       0.022200
     10 H4           0.2530     0.0220     1.4880 h1         1 GXV       0.103700
     11 H5          -0.4610    -1.4860    -0.7810 ho         1 GXV       0.451000
     12 H6          -1.2530     1.7460     0.5550 h4         1 GXV      -0.006800
@<TRIPOS>BOND
     1     1     2 1   
     2     1     7 1   
     3     2     3 1   
     4     2     8 1   
     5     2     9 1   
     6     3     4 1   
     7     3     5 1   
     8     3    10 1   
     9     4    11 1   
    10     5     6 2   
    11     5    12 1   
@<TRIPOS>SUBSTRUCTURE
     1 GXV         1 TEMP              0 ****  ****    0 ROOT
