@<TRIPOS>MOLECULE
GXX
   58    60     1     0     0
SMALL
No Charge or Current Charge


@<TRIPOS>ATOM
      1 C12         -0.3320    -1.2190    -0.2680 c6         1 GXX       0.359300
      2 C22          0.7210    -1.5280    -1.3860 c6         1 GXX       0.167300
      3 C32          2.1320    -1.6590    -0.7270 c6         1 GXX       0.175300
      4 C42          2.0930    -2.7660     0.3830 c6         1 GXX       0.121300
      5 C52          0.9650    -2.4030     1.3960 c6         1 GXX       0.133600
      6 O22          0.3590    -2.7370    -2.1060 oh         1 GXX      -0.691000
      7 O1           2.5210    -0.3750    -0.1770 os         1 GXX      -0.478000
      8 O42          1.8390    -4.0500    -0.2160 oh         1 GXX      -0.685000
      9 O5          -0.3080    -2.2780     0.7160 os         1 GXX      -0.449000
     10 C21         -4.0800    -1.3850    -0.4050 c6         1 GXX       0.144300
     11 C31         -2.7280    -0.7010    -0.0250 c6         1 GXX       0.181300
     12 C41         -2.8850     0.8610    -0.0970 c6         1 GXX       0.114300
     13 C51         -4.0920     1.3030     0.7950 c6         1 GXX       0.155300
     14 C6          -4.3760     2.8400     0.7100 c3         1 GXX       0.170600
     15 C11         -5.2040    -0.8220     0.5240 c6         1 GXX       0.356300
     16 O21         -4.0080    -2.8310    -0.3270 oh         1 GXX      -0.692000
     17 O12         -1.6480    -1.1990    -0.8640 os         1 GXX      -0.451000
     18 O41         -1.6780     1.5580     0.2850 oh         1 GXX      -0.714000
     19 O51         -5.2930     0.5960     0.3880 os         1 GXX      -0.469000
     20 O6          -5.5250     3.2520     1.4800 oh         1 GXX      -0.706000
     21 C1           3.9210    -0.2270     0.1490 c6         1 GXX       0.346300
     22 C2           4.1750     1.0040     1.0870 c6         1 GXX       0.159300
     23 C3           3.8510     2.3170     0.3170 c6         1 GXX       0.181300
     24 C4           4.6700     2.3850    -1.0040 c6         1 GXX       0.095300
     25 C5           4.3740     1.1100    -1.8450 c6         1 GXX       0.127600
     26 O2           3.4110     0.9420     2.3140 oh         1 GXX      -0.685000
     27 O3           4.1350     3.4720     1.1280 oh         1 GXX      -0.648000
     28 O4           4.3490     3.5900    -1.7320 oh         1 GXX      -0.721000
     29 O            4.6740    -0.0820    -1.0780 os         1 GXX      -0.460000
     30 O7          -6.4740    -1.3140     0.1370 oh         1 GXX      -0.646000
     31 H1          -0.0950    -0.2570     0.2070 h2         1 GXX       0.054700
     32 H2           0.7440    -0.6770    -2.0820 h1         1 GXX       0.042700
     33 H3           2.8560    -1.9410    -1.5060 h1         1 GXX       0.082700
     34 H4           3.0520    -2.7990     0.9180 h1         1 GXX       0.019700
     35 H5           0.8860    -3.1870     2.1620 h1         1 GXX       0.057200
     36 H6           1.2000    -1.4580     1.9080 h1         1 GXX       0.057200
     37 H7          -0.6200    -2.6740    -2.2300 ho         1 GXX       0.521000
     38 H8           1.1930    -3.8530    -0.9470 ho         1 GXX       0.501000
     39 H9          -4.3240    -1.0870    -1.4360 h1         1 GXX       0.061700
     40 H10         -2.5130    -0.9750     1.0190 h1         1 GXX       0.075700
     41 H11         -3.1390     1.1190    -1.1370 h1         1 GXX       0.054700
     42 H12         -3.8750     1.0560     1.8450 h1         1 GXX       0.061700
     43 H13         -3.4850     3.3770     1.0620 h1         1 GXX       0.027200
     44 H14         -4.5200     3.1030    -0.3460 h1         1 GXX       0.027200
     45 H15         -5.0030    -1.0830     1.5740 h2         1 GXX       0.031700
     46 H16         -4.9410    -3.1460    -0.3840 ho         1 GXX       0.516000
     47 H17         -1.2640     1.8990    -0.5410 ho         1 GXX       0.510000
     48 H18         -5.6560     4.2130     1.3070 ho         1 GXX       0.504000
     49 H19          4.2740    -1.1230     0.6800 h2         1 GXX       0.069700
     50 H20          5.2480     1.0120     1.3300 h1         1 GXX       0.052700
     51 H21          2.7830     2.3030     0.0510 h1         1 GXX       0.072700
     52 H22          5.7410     2.3790    -0.7480 h1         1 GXX       0.049700
     53 H23          3.3190     1.0910    -2.1560 h1         1 GXX       0.060200
     54 H24          4.9950     1.1070    -2.7520 h1         1 GXX       0.060200
     55 H25          3.4040     1.8680     2.6550 ho         1 GXX       0.501000
     56 H26          4.2070     4.2130     0.4820 ho         1 GXX       0.458000
     57 H27          4.9780     3.6550    -2.4910 ho         1 GXX       0.511000
     58 H28         -7.0630    -0.5380     0.2520 ho         1 GXX       0.464000
@<TRIPOS>BOND
     1     1     2 1   
     2     1     9 1   
     3     1    17 1   
     4     1    31 1   
     5     2     3 1   
     6     2     6 1   
     7     2    32 1   
     8     3     4 1   
     9     3     7 1   
    10     3    33 1   
    11     4     5 1   
    12     4     8 1   
    13     4    34 1   
    14     5     9 1   
    15     5    35 1   
    16     5    36 1   
    17     6    37 1   
    18     7    21 1   
    19     8    38 1   
    20    10    11 1   
    21    10    15 1   
    22    10    16 1   
    23    10    39 1   
    24    11    12 1   
    25    11    17 1   
    26    11    40 1   
    27    12    13 1   
    28    12    18 1   
    29    12    41 1   
    30    13    14 1   
    31    13    19 1   
    32    13    42 1   
    33    14    20 1   
    34    14    43 1   
    35    14    44 1   
    36    15    19 1   
    37    15    30 1   
    38    15    45 1   
    39    16    46 1   
    40    18    47 1   
    41    20    48 1   
    42    21    22 1   
    43    21    29 1   
    44    21    49 1   
    45    22    23 1   
    46    22    26 1   
    47    22    50 1   
    48    23    24 1   
    49    23    27 1   
    50    23    51 1   
    51    24    25 1   
    52    24    28 1   
    53    24    52 1   
    54    25    29 1   
    55    25    53 1   
    56    25    54 1   
    57    26    55 1   
    58    27    56 1   
    59    28    57 1   
    60    30    58 1   
@<TRIPOS>SUBSTRUCTURE
     1 GXX         1 TEMP              0 ****  ****    0 ROOT
