@<TRIPOS>MOLECULE
GXX
   58    60     1     0     0
SMALL
abcg2


@<TRIPOS>ATOM
      1 C12         -0.3000    -1.2020    -0.1880 c6         1 GXX       0.359300
      2 C22          0.6750    -1.4580    -1.3390 c6         1 GXX       0.167300
      3 C32          2.0710    -1.7360    -0.7760 c6         1 GXX       0.175300
      4 C42          2.0520    -2.7690     0.3570 c6         1 GXX       0.121300
      5 C52          0.9630    -2.4050     1.3560 c6         1 GXX       0.133600
      6 O22          0.2880    -2.5500    -2.1270 oh         1 GXX      -0.691000
      7 O1           2.5210    -0.5020    -0.2490 os         1 GXX      -0.478000
      8 O42          1.8740    -4.0420    -0.2140 oh         1 GXX      -0.685000
      9 O5          -0.2940    -2.2640     0.7300 os         1 GXX      -0.449000
     10 C21         -3.8390    -1.2860    -0.0330 c6         1 GXX       0.144300
     11 C31         -2.5590    -0.4690     0.0490 c6         1 GXX       0.181300
     12 C41         -2.7830     0.9520    -0.4620 c6         1 GXX       0.114300
     13 C51         -3.9980     1.5750     0.2350 c6         1 GXX       0.155300
     14 C6          -4.3260     2.9440    -0.3180 c3         1 GXX       0.170600
     15 C11         -4.9750    -0.5180     0.6430 c6         1 GXX       0.356300
     16 O21         -3.6170    -2.5210     0.5920 oh         1 GXX      -0.692000
     17 O12         -1.5670    -1.1050    -0.7310 os         1 GXX      -0.451000
     18 O41         -1.6160     1.6980    -0.2090 oh         1 GXX      -0.714000
     19 O51         -5.1250     0.7460     0.0480 os         1 GXX      -0.469000
     20 O6          -5.3850     3.4970     0.4260 oh         1 GXX      -0.706000
     21 C1           3.8960    -0.3090    -0.1930 c6         1 GXX       0.346300
     22 C2           4.1970     0.6300     0.9830 c6         1 GXX       0.159300
     23 C3           3.6440     2.0190     0.7060 c6         1 GXX       0.181300
     24 C4           4.1780     2.5010    -0.6380 c6         1 GXX       0.095300
     25 C5           3.8810     1.4800    -1.7300 c6         1 GXX       0.127600
     26 O2           3.6510     0.1480     2.1810 oh         1 GXX      -0.685000
     27 O3           4.0360     2.8690     1.7550 oh         1 GXX      -0.648000
     28 O4           3.5630     3.7370    -0.9230 oh         1 GXX      -0.721000
     29 O            4.3960     0.2040    -1.3940 os         1 GXX      -0.460000
     30 O7          -6.1430    -1.2310     0.4610 oh         1 GXX      -0.646000
     31 H1          -0.0090    -0.2720     0.3230 h2         1 GXX       0.054700
     32 H2           0.7350    -0.5350    -1.9370 h1         1 GXX       0.042700
     33 H3           2.7210    -2.0830    -1.5900 h1         1 GXX       0.082700
     34 H4           3.0140    -2.7140     0.8900 h1         1 GXX       0.019700
     35 H5           0.8610    -3.1860     2.1130 h1         1 GXX       0.057200
     36 H6           1.2570    -1.4830     1.8750 h1         1 GXX       0.057200
     37 H7          -0.5990    -2.3770    -2.4590 ho         1 GXX       0.521000
     38 H8           1.9750    -4.6980     0.4820 ho         1 GXX       0.501000
     39 H9          -4.1060    -1.4120    -1.0950 h1         1 GXX       0.061700
     40 H10         -2.2470    -0.4170     1.1020 h1         1 GXX       0.075700
     41 H11         -2.9920     0.8990    -1.5400 h1         1 GXX       0.054700
     42 H12         -3.7720     1.6720     1.3110 h1         1 GXX       0.061700
     43 H13         -3.4250     3.5650    -0.2580 h1         1 GXX       0.027200
     44 H14         -4.5820     2.8490    -1.3830 h1         1 GXX       0.027200
     45 H15         -4.7390    -0.3940     1.7150 h2         1 GXX       0.031700
     46 H16         -4.4070    -3.0590     0.4760 ho         1 GXX       0.516000
     47 H17         -1.4330     2.2640    -0.9630 ho         1 GXX       0.510000
     48 H18         -5.5460     4.3860     0.0990 ho         1 GXX       0.504000
     49 H19          4.4250    -1.2600    -0.0460 h2         1 GXX       0.069700
     50 H20          5.2920     0.7080     1.0530 h1         1 GXX       0.052700
     51 H21          2.5460     1.9600     0.6400 h1         1 GXX       0.072700
     52 H22          5.2680     2.6180    -0.5480 h1         1 GXX       0.049700
     53 H23          2.8010     1.4410    -1.9150 h1         1 GXX       0.060200
     54 H24          4.3640     1.7730    -2.6640 h1         1 GXX       0.060200
     55 H25          4.1630    -0.6140     2.4680 ho         1 GXX       0.501000
     56 H26          3.7160     3.7530     1.5520 ho         1 GXX       0.458000
     57 H27          4.0910     4.2020    -1.5780 ho         1 GXX       0.511000
     58 H28         -6.7900    -0.9660     1.1230 ho         1 GXX       0.464000
@<TRIPOS>BOND
     1     1     2 1   
     2     1     9 1   
     3     1    17 1   
     4     1    31 1   
     5     2     3 1   
     6     2     6 1   
     7     2    32 1   
     8     3     4 1   
     9     3     7 1   
    10     3    33 1   
    11     4     5 1   
    12     4     8 1   
    13     4    34 1   
    14     5     9 1   
    15     5    35 1   
    16     5    36 1   
    17     6    37 1   
    18     7    21 1   
    19     8    38 1   
    20    10    11 1   
    21    10    15 1   
    22    10    16 1   
    23    10    39 1   
    24    11    12 1   
    25    11    17 1   
    26    11    40 1   
    27    12    13 1   
    28    12    18 1   
    29    12    41 1   
    30    13    14 1   
    31    13    19 1   
    32    13    42 1   
    33    14    20 1   
    34    14    43 1   
    35    14    44 1   
    36    15    19 1   
    37    15    30 1   
    38    15    45 1   
    39    16    46 1   
    40    18    47 1   
    41    20    48 1   
    42    21    22 1   
    43    21    29 1   
    44    21    49 1   
    45    22    23 1   
    46    22    26 1   
    47    22    50 1   
    48    23    24 1   
    49    23    27 1   
    50    23    51 1   
    51    24    25 1   
    52    24    28 1   
    53    24    52 1   
    54    25    29 1   
    55    25    53 1   
    56    25    54 1   
    57    26    55 1   
    58    27    56 1   
    59    28    57 1   
    60    30    58 1   
@<TRIPOS>SUBSTRUCTURE
     1 GXX         1 TEMP              0 ****  ****    0 ROOT
