@<TRIPOS>MOLECULE
GXY
   22    22     1     0     0
SMALL
bcc


@<TRIPOS>ATOM
      1 CAA         -2.9670     2.5900    -0.0570 c3         1 GXY       0.128700
      2 CAC         -1.9520     0.4430    -0.0600 ca         1 GXY       0.039100
      3 CAD         -0.6710     0.9620    -0.0280 ca         1 GXY      -0.114000
      4 CAE          0.4340     0.1170    -0.0090 ca         1 GXY      -0.074900
      5 CAF          0.2740    -1.2640    -0.0160 ca         1 GXY       0.178100
      6 CAG         -1.0220    -1.7800    -0.0400 ca         1 GXY      -0.268000
      7 CAH         -2.1420    -0.9530    -0.0640 ca         1 GXY       0.182600
      8 CAK          1.2480    -3.4290     0.0010 c3         1 GXY       0.125700
      9 NAI         -3.4120    -1.4750    -0.1510 nv         1 GXY      -0.812200
     10 OAB         -3.0860     1.1840    -0.0870 os         1 GXY      -0.328900
     11 OAJ          1.3840    -2.0220     0.0060 os         1 GXY      -0.300900
     12 BR           2.1690     0.8560     0.0280 br         1 GXY      -0.086100
     13 HAC         -2.4240     2.9720    -0.9250 h1         1 GXY       0.040033
     14 HAA         -3.9780     2.9880    -0.0740 h1         1 GXY       0.040033
     15 HAB         -2.4660     2.9370     0.8520 h1         1 GXY       0.040033
     16 HAD         -0.5160     2.0330    -0.0220 ha         1 GXY       0.149000
     17 HAG         -1.1810    -2.8510    -0.0420 ha         1 GXY       0.137000
     18 HAM          0.7090    -3.7910     0.8810 h1         1 GXY       0.041700
     19 HAK          0.7380    -3.7860    -0.8970 h1         1 GXY       0.041700
     20 HAL          2.2560    -3.8340     0.0170 h1         1 GXY       0.041700
     21 HAI         -4.1510    -0.9060     0.2280 hn         1 GXY       0.400300
     22 HAN         -3.5020    -2.4400     0.1250 hn         1 GXY       0.400300
@<TRIPOS>BOND
     1     1    10 1   
     2     1    13 1   
     3     1    14 1   
     4     1    15 1   
     5     2     3 ar  
     6     2     7 ar  
     7     2    10 1   
     8     3     4 ar  
     9     3    16 1   
    10     4     5 ar  
    11     4    12 1   
    12     5     6 ar  
    13     5    11 1   
    14     6     7 ar  
    15     6    17 1   
    16     7     9 1   
    17     8    11 1   
    18     8    18 1   
    19     8    19 1   
    20     8    20 1   
    21     9    21 1   
    22     9    22 1   
@<TRIPOS>SUBSTRUCTURE
     1 GXY         1 TEMP              0 ****  ****    0 ROOT
