@<TRIPOS>MOLECULE
GXY
   22    22     1     0     0
SMALL
No Charge or Current Charge


@<TRIPOS>ATOM
      1 CAA         -3.0230     2.6980    -0.0510 c3         1 GXY       0.151900
      2 CAC         -1.9800     0.4460    -0.0450 ca         1 GXY       0.039100
      3 CAD         -0.6740     0.9840    -0.0260 ca         1 GXY      -0.096000
      4 CAE          0.4390     0.1260    -0.0110 ca         1 GXY      -0.074900
      5 CAF          0.2680    -1.2730    -0.0140 ca         1 GXY       0.178100
      6 CAG         -1.0350    -1.8120    -0.0330 ca         1 GXY      -0.250000
      7 CAH         -2.1480    -0.9630    -0.0490 ca         1 GXY       0.321000
      8 CAK          1.3210    -3.5100    -0.0010 c3         1 GXY       0.148900
      9 NAI         -3.4000    -1.5290    -0.0670 nv         1 GXY      -1.061000
     10 OAB         -3.1070     1.2610    -0.0550 os         1 GXY      -0.352100
     11 OAJ          1.3950    -2.0740     0.0010 os         1 GXY      -0.324100
     12 Br           2.1970     0.8940     0.0140 br         1 GXY      -0.086100
     13 HAC         -2.4850     3.0600    -0.9370 h1         1 GXY       0.040033
     14 HAA         -4.0280     3.1380    -0.0620 h1         1 GXY       0.040033
     15 HAB         -2.5050     3.0570     0.8470 h1         1 GXY       0.040033
     16 HAD         -0.5030     2.0560    -0.0220 ha         1 GXY       0.131000
     17 HAG         -1.1950    -2.8850    -0.0370 ha         1 GXY       0.119000
     18 HAM          0.7830    -3.8740     0.8830 h1         1 GXY       0.041700
     19 HAK          0.8090    -3.8730    -0.9010 h1         1 GXY       0.041700
     20 HAL          2.3300    -3.9420     0.0130 h1         1 GXY       0.041700
     21 HAI         -4.2030    -0.9180     0.0710 hn         1 GXY       0.455500
     22 HAN         -3.5150    -2.5160     0.1500 hn         1 GXY       0.455500
@<TRIPOS>BOND
     1     1    10 1   
     2     1    13 1   
     3     1    14 1   
     4     1    15 1   
     5     2     3 ar  
     6     2     7 ar  
     7     2    10 1   
     8     3     4 ar  
     9     3    16 1   
    10     4     5 ar  
    11     4    12 1   
    12     5     6 ar  
    13     5    11 1   
    14     6     7 ar  
    15     6    17 1   
    16     7     9 1   
    17     8    11 1   
    18     8    18 1   
    19     8    19 1   
    20     8    20 1   
    21     9    21 1   
    22     9    22 1   
@<TRIPOS>SUBSTRUCTURE
     1 GXY         1 TEMP              0 ****  ****    0 ROOT
