@<TRIPOS>MOLECULE
GY0
   44    43     1     0     0
SMALL
bcc


@<TRIPOS>ATOM
      1 C02         64.8830    76.5050    97.1480 c3         1 GY0       0.149100
      2 C03         64.5530    77.9000    97.6620 c3         1 GY0      -0.073400
      3 C04         65.7640    78.7920    97.9250 c3         1 GY0      -0.068400
      4 C05         66.6670    79.0260    96.7090 c3         1 GY0      -0.049200
      5 C06         65.9240    79.6290    95.5620 c2         1 GY0      -0.133200
      6 C07         65.7840    79.0750    94.3620 c2         1 GY0      -0.236200
      7 C08         65.0090    79.7030    93.2450 c3         1 GY0       0.197300
      8 C09         65.9080    80.0030    92.0400 c3         1 GY0      -0.166400
      9 C10         67.0540    80.9130    92.3990 c          1 GY0       0.618700
     10 C12         68.0990    83.3530    93.2290 c3         1 GY0       0.030700
     11 C13         68.8290    83.8110    91.9790 c3         1 GY0      -0.138400
     12 C14         65.7510    75.7100    98.1120 c3         1 GY0      -0.129100
     13 C17         70.0930    84.5640    92.3070 c          1 GY0       0.641100
     14 C19         72.0040    85.5750    91.3740 c3         1 GY0       0.128700
     15 O01         63.6430    75.8520    96.9230 oh         1 GY0      -0.603800
     16 O15         64.0000    78.8400    92.7630 oh         1 GY0      -0.594800
     17 O16         68.2110    80.5820    92.3940 o          1 GY0      -0.503100
     18 O18         70.7890    84.8410    91.2140 os         1 GY0      -0.419900
     19 O20         70.4340    84.8870    93.4170 o          1 GY0      -0.537000
     20 S11         66.5250    82.5460    92.8410 ss         1 GY0      -0.344700
     21 H1          65.4240    76.6010    96.1960 h1         1 GY0       0.027700
     22 H2          63.9810    77.8060    98.5910 hc         1 GY0       0.052200
     23 H3          63.8940    78.3870    96.9370 hc         1 GY0       0.052200
     24 H4          66.3670    78.3780    98.7360 hc         1 GY0       0.042700
     25 H5          65.4040    79.7600    98.2850 hc         1 GY0       0.042700
     26 H6          67.1480    78.0960    96.3940 hc         1 GY0       0.049700
     27 H7          67.4760    79.7000    97.0100 hc         1 GY0       0.049700
     28 H8          65.4510    80.5910    95.7540 ha         1 GY0       0.121000
     29 H9          66.2460    78.1130    94.1490 ha         1 GY0       0.133000
     30 H10         64.5720    80.6440    93.6060 h1         1 GY0       0.045700
     31 H11         65.3110    80.4690    91.2500 hc         1 GY0       0.087200
     32 H12         66.3240    79.0720    91.6510 hc         1 GY0       0.087200
     33 H13         68.7010    82.6690    93.8260 h1         1 GY0       0.091700
     34 H14         67.8320    84.1980    93.8620 h1         1 GY0       0.091700
     35 H15         68.1880    84.4650    91.3820 hc         1 GY0       0.084700
     36 H16         69.0800    82.9640    91.3390 hc         1 GY0       0.084700
     37 H17         65.9540    74.7110    97.7200 hc         1 GY0       0.040367
     38 H18         66.7150    76.1930    98.2730 hc         1 GY0       0.040367
     39 H19         65.2630    75.6030    99.0830 hc         1 GY0       0.040367
     40 H20         72.4130    85.6940    90.3750 h1         1 GY0       0.049367
     41 H21         71.8210    86.5570    91.8090 h1         1 GY0       0.049367
     42 H22         72.7180    85.0350    91.9950 h1         1 GY0       0.049367
     43 H23         63.8300    74.9800    96.5630 ho         1 GY0       0.402000
     44 H24         63.4250    78.6170    93.5020 ho         1 GY0       0.415000
@<TRIPOS>BOND
     1     1     2 1   
     2     1    12 1   
     3     1    15 1   
     4     1    21 1   
     5     2     3 1   
     6     2    22 1   
     7     2    23 1   
     8     3     4 1   
     9     3    24 1   
    10     3    25 1   
    11     4     5 1   
    12     4    26 1   
    13     4    27 1   
    14     5     6 2   
    15     5    28 1   
    16     6     7 1   
    17     6    29 1   
    18     7     8 1   
    19     7    16 1   
    20     7    30 1   
    21     8     9 1   
    22     8    31 1   
    23     8    32 1   
    24     9    17 2   
    25     9    20 1   
    26    10    11 1   
    27    10    20 1   
    28    10    33 1   
    29    10    34 1   
    30    11    13 1   
    31    11    35 1   
    32    11    36 1   
    33    12    37 1   
    34    12    38 1   
    35    12    39 1   
    36    13    18 1   
    37    13    19 2   
    38    14    18 1   
    39    14    40 1   
    40    14    41 1   
    41    14    42 1   
    42    15    43 1   
    43    16    44 1   
@<TRIPOS>SUBSTRUCTURE
     1 GY0         1 TEMP              0 ****  ****    0 ROOT
