@<TRIPOS>MOLECULE
GY0
   44    43     1     0     0
SMALL
No Charge or Current Charge


@<TRIPOS>ATOM
      1 C02         64.8050    76.4380    97.2020 c3         1 GY0       0.172300
      2 C03         64.4960    77.8440    97.7770 c3         1 GY0      -0.073400
      3 C04         65.7270    78.7470    98.0570 c3         1 GY0      -0.068400
      4 C05         66.6270    79.0280    96.8300 c3         1 GY0      -0.049200
      5 C06         65.8790    79.6800    95.6860 c2         1 GY0      -0.183200
      6 C07         65.7080    79.1380    94.4680 c2         1 GY0      -0.286200
      7 C08         64.9770    79.7860    93.3210 c3         1 GY0       0.220500
      8 C09         65.8640    79.9830    92.0840 c3         1 GY0      -0.166400
      9 C10         67.0220    80.9250    92.3940 c          1 GY0       0.618700
     10 C12         68.2080    83.4900    92.6680 c3         1 GY0       0.078600
     11 C13         69.2250    83.4020    91.5120 c3         1 GY0      -0.138400
     12 C14         65.6750    75.5640    98.1290 c3         1 GY0      -0.129100
     13 C17         70.5240    84.1050    91.8940 c          1 GY0       0.592100
     14 C19         71.7130    86.1960    91.7510 c3         1 GY0       0.151900
     15 O01         63.5700    75.7560    96.9700 oh         1 GY0      -0.666000
     16 O15         63.8870    78.9430    92.9760 oh         1 GY0      -0.657000
     17 O16         68.1110    80.5330    92.7900 o          1 GY0      -0.503100
     18 O18         70.5470    85.4040    91.4580 os         1 GY0      -0.443100
     19 O20         71.4250    83.5680    92.5230 o          1 GY0      -0.488000
     20 S11         66.6020    82.6880    92.2040 ss         1 GY0      -0.392600
     21 H1          65.3350    76.5590    96.2470 h1         1 GY0       0.027700
     22 H2          63.9330    77.7290    98.7120 hc         1 GY0       0.052200
     23 H3          63.8280    78.3680    97.0830 hc         1 GY0       0.052200
     24 H4          66.3370    78.2990    98.8510 hc         1 GY0       0.042700
     25 H5          65.3700    79.7050    98.4540 hc         1 GY0       0.042700
     26 H6          67.0960    78.0920    96.5020 hc         1 GY0       0.049700
     27 H7          67.4510    79.6800    97.1440 hc         1 GY0       0.049700
     28 H8          65.4730    80.6670    95.9180 ha         1 GY0       0.171000
     29 H9          66.1200    78.1550    94.2370 ha         1 GY0       0.183000
     30 H10         64.5980    80.7690    93.6400 h1         1 GY0       0.045700
     31 H11         65.2350    80.4430    91.3140 hc         1 GY0       0.087200
     32 H12         66.2530    79.0160    91.7490 hc         1 GY0       0.087200
     33 H13         68.6110    83.0190    93.5750 h1         1 GY0       0.091700
     34 H14         68.0140    84.5480    92.8960 h1         1 GY0       0.091700
     35 H15         68.7820    83.9060    90.6460 hc         1 GY0       0.084700
     36 H16         69.4370    82.3520    91.2860 hc         1 GY0       0.084700
     37 H17         65.8170    74.5650    97.7000 hc         1 GY0       0.040367
     38 H18         66.6680    76.0080    98.2640 hc         1 GY0       0.040367
     39 H19         65.2090    75.4540    99.1150 hc         1 GY0       0.040367
     40 H20         71.5980    87.2090    91.3460 h1         1 GY0       0.049367
     41 H21         71.8680    86.2790    92.8340 h1         1 GY0       0.049367
     42 H22         72.6120    85.7510    91.3040 h1         1 GY0       0.049367
     43 H23         63.7940    74.8920    96.5610 ho         1 GY0       0.441000
     44 H24         63.4330    78.7290    93.8190 ho         1 GY0       0.454000
@<TRIPOS>BOND
     1     1     2 1   
     2     1    12 1   
     3     1    15 1   
     4     1    21 1   
     5     2     3 1   
     6     2    22 1   
     7     2    23 1   
     8     3     4 1   
     9     3    24 1   
    10     3    25 1   
    11     4     5 1   
    12     4    26 1   
    13     4    27 1   
    14     5     6 2   
    15     5    28 1   
    16     6     7 1   
    17     6    29 1   
    18     7     8 1   
    19     7    16 1   
    20     7    30 1   
    21     8     9 1   
    22     8    31 1   
    23     8    32 1   
    24     9    17 2   
    25     9    20 1   
    26    10    11 1   
    27    10    20 1   
    28    10    33 1   
    29    10    34 1   
    30    11    13 1   
    31    11    35 1   
    32    11    36 1   
    33    12    37 1   
    34    12    38 1   
    35    12    39 1   
    36    13    18 1   
    37    13    19 2   
    38    14    18 1   
    39    14    40 1   
    40    14    41 1   
    41    14    42 1   
    42    15    43 1   
    43    16    44 1   
@<TRIPOS>SUBSTRUCTURE
     1 GY0         1 TEMP              0 ****  ****    0 ROOT
