@<TRIPOS>MOLECULE
GY1
  106   110     1     0     0
SMALL
No Charge or Current Charge


@<TRIPOS>ATOM
      1 CBU         17.6780     3.4860    10.2770 c3         1 GY1       0.145400
      2 OBT         17.2820     3.9010     8.9580 os         1 GY1      -0.321100
      3 CBS         16.1990     4.7300     8.7170 ca         1 GY1       0.157100
      4 CBR         15.3900     5.1670     9.7910 ca         1 GY1      -0.217000
      5 CBV         15.8900     5.1600     7.3900 ca         1 GY1       0.027100
      6 OBW         16.6070     4.7950     6.2480 os         1 GY1      -0.319100
      7 CBX         17.7010     3.8630     6.2210 c3         1 GY1       0.149900
      8 CBY         14.7820     6.0170     7.1860 ca         1 GY1       0.157100
      9 OBZ         14.4910     6.4150     5.8910 os         1 GY1      -0.321100
     10 CCA         13.3490     7.2240     5.5640 c3         1 GY1       0.145400
     11 CBQ         13.9950     6.4390     8.2770 ca         1 GY1      -0.217000
     12 CBP         14.2940     6.0210     9.5830 ca         1 GY1      -0.007300
     13 CBI         13.4200     6.4850    10.7550 c3         1 GY1      -0.085400
     14 CBJ         14.2230     7.1740    11.9140 c6         1 GY1      -0.045700
     15 CBK         15.1140     8.3400    11.3900 c6         1 GY1      -0.074400
     16 CBL         15.8960     9.0250    12.5370 c6         1 GY1      -0.072900
     17 CBM         14.9420     9.5290    13.6450 c6         1 GY1      -0.075400
     18 CBN         14.0560     8.3790    14.1800 c6         1 GY1      -0.072900
     19 CBO         13.2720     7.6950    13.0330 c6         1 GY1      -0.074400
     20 CBG         12.5780     5.2610    11.2240 c          1 GY1       0.625100
     21 OBH         13.0790     4.4270    11.9710 o          1 GY1      -0.616100
     22 N           11.2650     5.0410    10.7170 n          1 GY1      -0.389800
     23 CBE         10.5510     6.0580     9.8790 c6         1 GY1       0.099000
     24 CBD          9.0160     5.9070     9.8210 c6         1 GY1      -0.091400
     25 CBC          8.5960     4.4790     9.4610 c6         1 GY1      -0.078400
     26 CB           9.2010     3.5070    10.4910 c6         1 GY1      -0.071400
     27 CA          10.7520     3.6190    10.6340 c6         1 GY1       0.040700
     28 C           11.5300     2.7860     9.5690 c          1 GY1       0.580100
     29 O           12.6660     2.3730     9.7670 o          1 GY1      -0.482000
     30 OAX         10.9240     2.7460     8.3380 os         1 GY1      -0.445100
     31 CAK         11.6420     2.2160     7.2090 c3         1 GY1       0.228600
     32 CAJ         10.6180     1.8830     6.1220 ca         1 GY1      -0.092300
     33 CAF         10.5220     0.5690     5.6230 ca         1 GY1      -0.141000
     34 CAI          9.7670     2.8780     5.5970 ca         1 GY1      -0.168000
     35 CAH          8.8410     2.5630     4.5900 ca         1 GY1      -0.089000
     36 CAG          8.7570     1.2520     4.0930 ca         1 GY1      -0.172000
     37 CAE          9.6050     0.2470     4.6090 ca         1 GY1       0.201100
     38 OAD          9.5680    -1.0640     4.1690 os         1 GY1      -0.334100
     39 CAC          8.7440    -1.4980     3.0550 c3         1 GY1      -0.000400
     40 CAA          9.2290    -0.9920     1.6600 c          1 GY1       0.702000
     41 OCB          8.4780    -1.1620     0.7090 o          1 GY1      -0.717000
     42 OAB         10.3230    -0.4520     1.5550 o          1 GY1      -0.717000
     43 CAL         12.6820     3.2740     6.7440 c3         1 GY1      -0.066400
     44 CAM         13.4450     2.8840     5.4540 c3         1 GY1      -0.028100
     45 CAN         14.0690     1.4920     5.5160 ca         1 GY1      -0.077300
     46 CAO         14.9550     1.1500     6.5560 ca         1 GY1      -0.173000
     47 CAP         13.7450     0.5320     4.5400 ca         1 GY1      -0.088000
     48 CAQ         14.2890    -0.7610     4.6020 ca         1 GY1      -0.162000
     49 CAR         15.1710    -1.1120     5.6490 ca         1 GY1       0.096100
     50 OAS         15.7210    -2.3810     5.7440 os         1 GY1      -0.332100
     51 CAT         15.4310    -3.4220     4.7950 c3         1 GY1       0.147900
     52 CAU         15.5060    -0.1500     6.6310 ca         1 GY1       0.094100
     53 OAV         16.3650    -0.5190     7.6540 os         1 GY1      -0.330100
     54 CAW         16.7620     0.3890     8.6950 c3         1 GY1       0.150900
     55 HCB         18.5690     2.8480    10.2220 h1         1 GY1       0.041367
     56 HCC         17.9190     4.3540    10.9040 h1         1 GY1       0.041367
     57 HBU         16.8790     2.9090    10.7610 h1         1 GY1       0.041367
     58 HBR         15.5980     4.8440    10.8050 ha         1 GY1       0.125500
     59 HCE         18.0530     3.7290     5.1910 h1         1 GY1       0.029367
     60 HBX         18.5460     4.2300     6.8170 h1         1 GY1       0.029367
     61 HCD         17.3890     2.8810     6.5980 h1         1 GY1       0.029367
     62 HCH         13.3060     7.4010     4.4820 h1         1 GY1       0.041367
     63 HCF         12.4190     6.7250     5.8630 h1         1 GY1       0.041367
     64 HCG         13.4050     8.1990     6.0650 h1         1 GY1       0.041367
     65 HBQ         13.1460     7.0970     8.1220 ha         1 GY1       0.125500
     66 HBI         12.7590     7.2500    10.3460 hc         1 GY1       0.059700
     67 HBJ         14.8810     6.4120    12.3550 hc         1 GY1       0.068700
     68 HB6         15.8300     7.9710    10.6440 hc         1 GY1       0.042200
     69 HBK         14.4890     9.0850    10.8760 hc         1 GY1       0.042200
     70 HBL         16.6190     8.3160    12.9660 hc         1 GY1       0.037450
     71 HB7         16.4820     9.8650    12.1390 hc         1 GY1       0.037450
     72 HBM         15.5230     9.9670    14.4680 hc         1 GY1       0.034700
     73 HB8         14.3060    10.3330    13.2480 hc         1 GY1       0.034700
     74 HB9         13.3550     8.7680    14.9300 hc         1 GY1       0.037450
     75 HBN         14.6830     7.6370    14.6930 hc         1 GY1       0.037450
     76 HCA         12.5510     8.4080    12.6070 hc         1 GY1       0.042200
     77 HBO         12.6800     6.8690    13.4500 hc         1 GY1       0.042200
     78 HBE         10.9570     6.0150     8.8570 h1         1 GY1       0.055700
     79 HB5         10.7370     7.0650    10.2730 h1         1 GY1       0.055700
     80 HBD          8.5890     6.1800    10.7960 hc         1 GY1       0.043200
     81 HB4          8.6020     6.6160     9.0910 hc         1 GY1       0.043200
     82 HBC          7.5000     4.3980     9.4700 hc         1 GY1       0.053700
     83 HB3          8.9150     4.2360     8.4400 hc         1 GY1       0.053700
     84 HB1          8.7470     3.7120    11.4710 hc         1 GY1       0.055200
     85 HB2          8.9180     2.4730    10.2450 hc         1 GY1       0.055200
     86 HA          10.9990     3.1120    11.5780 h1         1 GY1       0.103700
     87 HAK         12.1670     1.2910     7.4880 h1         1 GY1       0.071700
     88 HAF         11.1690    -0.2110     6.0140 ha         1 GY1       0.123000
     89 HAI          9.8220     3.8970     5.9730 ha         1 GY1       0.097000
     90 HAH          8.1880     3.3370     4.1930 ha         1 GY1       0.087000
     91 HAG          8.0330     1.0350     3.3150 ha         1 GY1       0.134000
     92 HAD          7.7010    -1.1900     3.2000 h1         1 GY1       0.033200
     93 HAC          8.7500    -2.5940     3.0080 h1         1 GY1       0.033200
     94 HAM         13.4130     3.4440     7.5410 hc         1 GY1       0.047200
     95 HAL         12.1800     4.2350     6.5810 hc         1 GY1       0.047200
     96 HAO         14.2270     3.6290     5.2660 hc         1 GY1       0.066200
     97 HAN         12.7560     2.9580     4.6040 hc         1 GY1       0.066200
     98 HAP         15.2000     1.9020     7.3000 ha         1 GY1       0.109000
     99 HAQ         13.0580     0.7830     3.7330 ha         1 GY1       0.152000
    100 HAR         14.0100    -1.4750     3.8330 ha         1 GY1       0.125000
    101 HAV         15.9700    -4.3390     5.0620 h1         1 GY1       0.035700
    102 HAT         14.3580    -3.6500     4.7810 h1         1 GY1       0.035700
    103 HAU         15.7430    -3.1260     3.7850 h1         1 GY1       0.035700
    104 HAY         17.4270    -0.1160     9.4070 h1         1 GY1       0.032033
    105 HAW         17.3030     1.2450     8.2740 h1         1 GY1       0.032033
    106 HAX         15.8880     0.7580     9.2470 h1         1 GY1       0.032033
@<TRIPOS>BOND
     1     1     2 1   
     2     1    55 1   
     3     1    56 1   
     4     1    57 1   
     5     2     3 1   
     6     3     4 ar  
     7     3     5 ar  
     8     4    12 ar  
     9     4    58 1   
    10     5     6 1   
    11     5     8 ar  
    12     6     7 1   
    13     7    59 1   
    14     7    60 1   
    15     7    61 1   
    16     8     9 1   
    17     8    11 ar  
    18     9    10 1   
    19    10    62 1   
    20    10    63 1   
    21    10    64 1   
    22    11    12 ar  
    23    11    65 1   
    24    12    13 1   
    25    13    14 1   
    26    13    20 1   
    27    13    66 1   
    28    14    15 1   
    29    14    19 1   
    30    14    67 1   
    31    15    16 1   
    32    15    68 1   
    33    15    69 1   
    34    16    17 1   
    35    16    70 1   
    36    16    71 1   
    37    17    18 1   
    38    17    72 1   
    39    17    73 1   
    40    18    19 1   
    41    18    74 1   
    42    18    75 1   
    43    19    76 1   
    44    19    77 1   
    45    20    21 2   
    46    20    22 1   
    47    22    23 1   
    48    22    27 1   
    49    23    24 1   
    50    23    78 1   
    51    23    79 1   
    52    24    25 1   
    53    24    80 1   
    54    24    81 1   
    55    25    26 1   
    56    25    82 1   
    57    25    83 1   
    58    26    27 1   
    59    26    84 1   
    60    26    85 1   
    61    27    28 1   
    62    27    86 1   
    63    28    29 2   
    64    28    30 1   
    65    30    31 1   
    66    31    32 1   
    67    31    43 1   
    68    31    87 1   
    69    32    33 ar  
    70    32    34 ar  
    71    33    37 ar  
    72    33    88 1   
    73    34    35 ar  
    74    34    89 1   
    75    35    36 ar  
    76    35    90 1   
    77    36    37 ar  
    78    36    91 1   
    79    37    38 1   
    80    38    39 1   
    81    39    40 1   
    82    39    92 1   
    83    39    93 1   
    84    40    41 1   
    85    40    42 1   
    86    43    44 1   
    87    43    94 1   
    88    43    95 1   
    89    44    45 1   
    90    44    96 1   
    91    44    97 1   
    92    45    46 ar  
    93    45    47 ar  
    94    46    52 ar  
    95    46    98 1   
    96    47    48 ar  
    97    47    99 1   
    98    48    49 ar  
    99    48   100 1   
   100    49    50 1   
   101    49    52 ar  
   102    50    51 1   
   103    51   101 1   
   104    51   102 1   
   105    51   103 1   
   106    52    53 1   
   107    53    54 1   
   108    54   104 1   
   109    54   105 1   
   110    54   106 1   
@<TRIPOS>SUBSTRUCTURE
     1 GY1         1 TEMP              0 ****  ****    0 ROOT
