@<TRIPOS>MOLECULE
GY1
  106   110     1     0     0
SMALL
bcc


@<TRIPOS>ATOM
      1 CBU         17.5450     4.0370     9.1330 c3         1 GY1       0.122200
      2 OBT         17.0610     4.5990     7.9310 os         1 GY1      -0.297900
      3 CBS         15.9000     5.2780     7.9650 ca         1 GY1       0.157100
      4 CBR         15.1560     5.5040     9.1190 ca         1 GY1      -0.235000
      5 CBV         15.4370     5.7350     6.7270 ca         1 GY1       0.027100
      6 OBW         16.1340     5.4550     5.5930 os         1 GY1      -0.295900
      7 CBX         17.0970     6.4350     5.2350 c3         1 GY1       0.126700
      8 CBY         14.2310     6.4330     6.6570 ca         1 GY1       0.157100
      9 OBZ         13.8550     6.8310     5.4290 os         1 GY1      -0.297900
     10 CCA         12.6320     7.5230     5.2890 c3         1 GY1       0.122200
     11 CBQ         13.4900     6.6590     7.8180 ca         1 GY1      -0.235000
     12 CBP         13.9520     6.1960     9.0430 ca         1 GY1      -0.007300
     13 CBI         13.1290     6.4440    10.2930 c3         1 GY1      -0.085400
     14 CBJ         13.8980     7.1920    11.3940 c6         1 GY1      -0.045700
     15 CBK         14.4370     8.5210    10.8620 c6         1 GY1      -0.074400
     16 CBL         15.1720     9.3050    11.9440 c6         1 GY1      -0.072900
     17 CBM         14.2870     9.5440    13.1610 c6         1 GY1      -0.075400
     18 CBN         13.7410     8.2260    13.6970 c6         1 GY1      -0.072900
     19 CBO         13.0060     7.4470    12.6110 c6         1 GY1      -0.074400
     20 CBG         12.6280     5.0870    10.7830 c          1 GY1       0.692100
     21 OBH         13.3600     4.3910    11.4740 o          1 GY1      -0.616100
     22 N           11.3930     4.6610    10.4140 n          1 GY1      -0.456800
     23 CBE         10.4640     5.3510     9.5280 c6         1 GY1       0.099000
     24 CBD          9.0550     5.3550    10.1020 c6         1 GY1      -0.091400
     25 CBC          8.5830     3.9380    10.3900 c6         1 GY1      -0.078400
     26 CB           9.5850     3.2390    11.2960 c6         1 GY1      -0.071400
     27 CA          11.0050     3.2990    10.7400 c6         1 GY1       0.040700
     28 C           11.2070     2.3660     9.5470 c          1 GY1       0.629100
     29 O           10.5600     1.3700     9.3520 o          1 GY1      -0.531000
     30 OAX         12.2200     2.7590     8.7950 os         1 GY1      -0.421900
     31 CAK         12.5710     2.0040     7.6210 c3         1 GY1       0.205400
     32 CAJ         11.6210     2.3230     6.4960 ca         1 GY1      -0.092300
     33 CAF         10.9840     1.2960     5.8210 ca         1 GY1      -0.159000
     34 CAI         11.4210     3.6440     6.0950 ca         1 GY1      -0.186000
     35 CAH         10.5890     3.9050     5.0200 ca         1 GY1      -0.107000
     36 CAG          9.9600     2.8780     4.3250 ca         1 GY1      -0.190000
     37 CAE         10.1600     1.5580     4.7230 ca         1 GY1       0.201100
     38 OAD          9.5830     0.4890     4.1520 os         1 GY1      -0.310900
     39 CAC          8.8560     0.6610     2.9520 c3         1 GY1      -0.023600
     40 CAA          9.7250     0.9760     1.7130 c          1 GY1       0.912600
     41 OCB          9.0630     1.2420     0.6920 o          1 GY1      -0.822300
     42 OAB         10.9570     0.9040     1.8400 o          1 GY1      -0.822300
     43 CAL         14.0020     2.4120     7.3060 c3         1 GY1      -0.066400
     44 CAM         14.5830     1.7230     6.0740 c3         1 GY1      -0.028100
     45 CAN         14.6370     0.2220     6.1830 ca         1 GY1      -0.077300
     46 CAO         15.3620    -0.3760     7.2210 ca         1 GY1      -0.191000
     47 CAP         13.9810    -0.5960     5.2830 ca         1 GY1      -0.106000
     48 CAQ         14.0380    -1.9860     5.4040 ca         1 GY1      -0.180000
     49 CAR         14.7490    -2.5750     6.4330 ca         1 GY1       0.096100
     50 OAS         14.8640    -3.9020     6.6400 os         1 GY1      -0.308900
     51 CAT         14.1930    -4.7700     5.7530 c3         1 GY1       0.124700
     52 CAU         15.4240    -1.7510     7.3590 ca         1 GY1       0.094100
     53 OAV         16.0950    -2.3970     8.3320 os         1 GY1      -0.306900
     54 CAW         16.7720    -1.6250     9.3010 c3         1 GY1       0.127700
     55 HCB         18.4730     3.5280     8.8820 h1         1 GY1       0.041367
     56 HCC         17.7560     4.7990     9.8870 h1         1 GY1       0.041367
     57 HBU         16.8460     3.3090     9.5530 h1         1 GY1       0.041367
     58 HBR         15.4970     5.1340    10.0750 ha         1 GY1       0.143500
     59 HCE         17.5750     6.0970     4.3170 h1         1 GY1       0.029367
     60 HBX         16.6370     7.4090     5.0510 h1         1 GY1       0.029367
     61 HCD         17.8650     6.5510     6.0050 h1         1 GY1       0.029367
     62 HCH         12.5230     7.7430     4.2290 h1         1 GY1       0.041367
     63 HCF         11.7790     6.9190     5.6100 h1         1 GY1       0.041367
     64 HCG         12.6270     8.4630     5.8460 h1         1 GY1       0.041367
     65 HBQ         12.5520     7.1960     7.7770 ha         1 GY1       0.143500
     66 HBI         12.3010     7.0960    10.0130 hc         1 GY1       0.059700
     67 HBJ         14.7510     6.5840    11.7180 hc         1 GY1       0.068700
     68 HB6         15.1030     8.3510    10.0130 hc         1 GY1       0.042200
     69 HBK         13.6000     9.1220    10.4860 hc         1 GY1       0.042200
     70 HBL         16.0650     8.7470    12.2480 hc         1 GY1       0.037450
     71 HB7         15.5250    10.2560    11.5370 hc         1 GY1       0.037450
     72 HBM         14.8430    10.0720    13.9390 hc         1 GY1       0.034700
     73 HB8         13.4510    10.1920    12.8770 hc         1 GY1       0.034700
     74 HB9         13.0730     8.4050    14.5430 hc         1 GY1       0.037450
     75 HBN         14.5700     7.6190    14.0760 hc         1 GY1       0.037450
     76 HCA         12.1240     8.0140    12.2920 hc         1 GY1       0.042200
     77 HBO         12.6390     6.5050    13.0250 hc         1 GY1       0.042200
     78 HBE         10.4580     4.8600     8.5470 h1         1 GY1       0.055700
     79 HB5         10.7860     6.3710     9.3570 h1         1 GY1       0.055700
     80 HBD          9.0430     5.9500    11.0210 hc         1 GY1       0.043200
     81 HB4          8.3930     5.8500     9.3900 hc         1 GY1       0.043200
     82 HBC          7.5970     3.9470    10.8570 hc         1 GY1       0.053700
     83 HB3          8.4800     3.3900     9.4490 hc         1 GY1       0.053700
     84 HB1          9.5960     3.7280    12.2740 hc         1 GY1       0.055200
     85 HB2          9.3080     2.2000    11.4710 hc         1 GY1       0.055200
     86 HA          11.6890     2.9330    11.5100 h1         1 GY1       0.103700
     87 HAK         12.5270     0.9350     7.8490 h1         1 GY1       0.071700
     88 HAF         11.1330     0.2690     6.1330 ha         1 GY1       0.141000
     89 HAI         11.9130     4.4610     6.6090 ha         1 GY1       0.115000
     90 HAH         10.4280     4.9280     4.7030 ha         1 GY1       0.105000
     91 HAG          9.3270     3.1280     3.4840 ha         1 GY1       0.152000
     92 HAD          8.0690     1.4140     3.0680 h1         1 GY1       0.033200
     93 HAC          8.3490    -0.2930     2.7880 h1         1 GY1       0.033200
     94 HAM         14.6260     2.2040     8.1790 hc         1 GY1       0.047200
     95 HAL         14.0380     3.4920     7.1530 hc         1 GY1       0.047200
     96 HAO         15.5910     2.1200     5.9230 hc         1 GY1       0.066200
     97 HAN         14.0110     2.0040     5.1870 hc         1 GY1       0.066200
     98 HAP         15.8820     0.2620     7.9260 ha         1 GY1       0.127000
     99 HAQ         13.4070    -0.1610     4.4730 ha         1 GY1       0.170000
    100 HAR         13.5120    -2.5920     4.6790 ha         1 GY1       0.143000
    101 HAV         14.4050    -5.7820     6.0900 h1         1 GY1       0.035700
    102 HAT         13.1110    -4.6150     5.7660 h1         1 GY1       0.035700
    103 HAU         14.5490    -4.6610     4.7240 h1         1 GY1       0.035700
    104 HAY         17.2360    -2.3290     9.9880 h1         1 GY1       0.032033
    105 HAW         17.5530    -1.0010     8.8580 h1         1 GY1       0.032033
    106 HAX         16.0880    -0.9830     9.8630 h1         1 GY1       0.032033
@<TRIPOS>BOND
     1     1     2 1   
     2     1    55 1   
     3     1    56 1   
     4     1    57 1   
     5     2     3 1   
     6     3     4 ar  
     7     3     5 ar  
     8     4    12 ar  
     9     4    58 1   
    10     5     6 1   
    11     5     8 ar  
    12     6     7 1   
    13     7    59 1   
    14     7    60 1   
    15     7    61 1   
    16     8     9 1   
    17     8    11 ar  
    18     9    10 1   
    19    10    62 1   
    20    10    63 1   
    21    10    64 1   
    22    11    12 ar  
    23    11    65 1   
    24    12    13 1   
    25    13    14 1   
    26    13    20 1   
    27    13    66 1   
    28    14    15 1   
    29    14    19 1   
    30    14    67 1   
    31    15    16 1   
    32    15    68 1   
    33    15    69 1   
    34    16    17 1   
    35    16    70 1   
    36    16    71 1   
    37    17    18 1   
    38    17    72 1   
    39    17    73 1   
    40    18    19 1   
    41    18    74 1   
    42    18    75 1   
    43    19    76 1   
    44    19    77 1   
    45    20    21 2   
    46    20    22 1   
    47    22    23 1   
    48    22    27 1   
    49    23    24 1   
    50    23    78 1   
    51    23    79 1   
    52    24    25 1   
    53    24    80 1   
    54    24    81 1   
    55    25    26 1   
    56    25    82 1   
    57    25    83 1   
    58    26    27 1   
    59    26    84 1   
    60    26    85 1   
    61    27    28 1   
    62    27    86 1   
    63    28    29 2   
    64    28    30 1   
    65    30    31 1   
    66    31    32 1   
    67    31    43 1   
    68    31    87 1   
    69    32    33 ar  
    70    32    34 ar  
    71    33    37 ar  
    72    33    88 1   
    73    34    35 ar  
    74    34    89 1   
    75    35    36 ar  
    76    35    90 1   
    77    36    37 ar  
    78    36    91 1   
    79    37    38 1   
    80    38    39 1   
    81    39    40 1   
    82    39    92 1   
    83    39    93 1   
    84    40    41 1   
    85    40    42 1   
    86    43    44 1   
    87    43    94 1   
    88    43    95 1   
    89    44    45 1   
    90    44    96 1   
    91    44    97 1   
    92    45    46 ar  
    93    45    47 ar  
    94    46    52 ar  
    95    46    98 1   
    96    47    48 ar  
    97    47    99 1   
    98    48    49 ar  
    99    48   100 1   
   100    49    50 1   
   101    49    52 ar  
   102    50    51 1   
   103    51   101 1   
   104    51   102 1   
   105    51   103 1   
   106    52    53 1   
   107    53    54 1   
   108    54   104 1   
   109    54   105 1   
   110    54   106 1   
@<TRIPOS>SUBSTRUCTURE
     1 GY1         1 TEMP              0 ****  ****    0 ROOT
