@<TRIPOS>MOLECULE
GY2
   35    37     1     0     0
SMALL
No Charge or Current Charge


@<TRIPOS>ATOM
      1 C12         19.3810    67.4130    42.4120 c3         1 GY2       0.217100
      2 C13         18.0730    65.5860    43.5550 ca         1 GY2       0.215000
      3 C01         13.9270    67.0390    42.4510 ca         1 GY2       0.151000
      4 C02         13.2230    66.8490    41.2540 ca         1 GY2      -0.116000
      5 C03         13.9170    66.5040    40.0810 ca         1 GY2      -0.075000
      6 C04         15.3160    66.3420    40.0960 ca         1 GY2       0.036000
      7 C05         16.0230    66.5230    41.3120 ca         1 GY2      -0.140000
      8 C06         15.3200    66.8820    42.4860 ca         1 GY2      -0.107000
      9 C08         17.3140    65.8870    39.0460 ca         1 GY2       0.268000
     10 C10         17.4310    66.3450    41.2850 ca         1 GY2       0.413900
     11 C14         18.5530    65.9400    44.8370 ca         1 GY2      -0.076000
     12 C15         18.3690    65.0840    45.9380 ca         1 GY2      -0.164000
     13 C16         17.7040    63.8590    45.7850 ca         1 GY2       0.148100
     14 C17         17.2210    63.4900    44.5130 ca         1 GY2      -0.164000
     15 C18         17.4060    64.3480    43.4130 ca         1 GY2      -0.076000
     16 C20         16.8850    61.7890    46.8500 c3         1 GY2       0.146900
     17 N07         15.9760    66.0210    38.9650 nb         1 GY2      -0.188000
     18 N09         18.0740    66.0310    40.1450 nb         1 GY2      -0.275000
     19 N11         18.2480    66.4510    42.4360 nh         1 GY2      -0.787100
     20 O19         17.5530    63.0620    46.9010 os         1 GY2      -0.337100
     21 Cl1         18.1540    65.4740    37.5610 cl         1 GY2      -0.140000
     22 H1          20.3170    66.9160    42.7020 h1         1 GY2       0.050700
     23 H2          19.5300    67.8310    41.4080 h1         1 GY2       0.050700
     24 H3          19.1910    68.2520    43.0950 h1         1 GY2       0.050700
     25 H4          12.1430    66.9730    41.2350 ha         1 GY2       0.137000
     26 H5          13.3660    66.3640    39.1530 ha         1 GY2       0.142000
     27 H6          15.8410    67.0490    43.4250 ha         1 GY2       0.145000
     28 H7          19.0610    66.8860    44.9940 ha         1 GY2       0.127500
     29 H8          18.7420    65.3740    46.9170 ha         1 GY2       0.129500
     30 H9          16.7040    62.5480    44.3570 ha         1 GY2       0.129500
     31 H10         17.0320    64.0360    42.4420 ha         1 GY2       0.127500
     32 H11         16.8750    61.3240    47.8440 h1         1 GY2       0.044033
     33 H12         15.8440    61.9070    46.5210 h1         1 GY2       0.044033
     34 H13         17.3980    61.1060    46.1610 h1         1 GY2       0.044033
     35 F22         13.2610    67.3800    43.5760 f          1 GY2      -0.175000
@<TRIPOS>BOND
     1     1    19 1   
     2     1    22 1   
     3     1    23 1   
     4     1    24 1   
     5     2    11 ar  
     6     2    15 ar  
     7     2    19 1   
     8     3     4 ar  
     9     3     8 ar  
    10     3    35 1   
    11     4     5 ar  
    12     4    25 1   
    13     5     6 ar  
    14     5    26 1   
    15     6     7 ar  
    16     6    17 ar  
    17     7     8 ar  
    18     7    10 ar  
    19     8    27 1   
    20     9    17 ar  
    21     9    18 ar  
    22     9    21 1   
    23    10    18 ar  
    24    10    19 1   
    25    11    12 ar  
    26    11    28 1   
    27    12    13 ar  
    28    12    29 1   
    29    13    14 ar  
    30    13    20 1   
    31    14    15 ar  
    32    14    30 1   
    33    15    31 1   
    34    16    20 1   
    35    16    32 1   
    36    16    33 1   
    37    16    34 1   
@<TRIPOS>SUBSTRUCTURE
     1 GY2         1 TEMP              0 ****  ****    0 ROOT
