@<TRIPOS>MOLECULE
GY2
   35    37     1     0     0
SMALL
bcc


@<TRIPOS>ATOM
      1 C12         19.7760    66.6670    42.0830 c3         1 GY2       0.217100
      2 C13         18.0710    65.6160    43.4820 ca         1 GY2       0.076600
      3 C01         13.9980    66.4420    42.6830 ca         1 GY2       0.115900
      4 C02         13.2480    66.4200    41.5050 ca         1 GY2      -0.134000
      5 C03         13.9070    66.4630    40.3070 ca         1 GY2      -0.158300
      6 C04         15.3140    66.5180    40.2590 ca         1 GY2       0.429600
      7 C05         16.0530    66.4760    41.4610 ca         1 GY2      -0.270600
      8 C06         15.3630    66.4670    42.6880 ca         1 GY2      -0.125000
      9 C08         17.1880    66.7690    39.0710 ca         1 GY2       0.794000
     10 C10         17.4920    66.5110    41.3040 ca         1 GY2       0.742200
     11 C14         18.2150    66.1630    44.7540 ca         1 GY2      -0.094000
     12 C15         17.9270    65.4090    45.8750 ca         1 GY2      -0.182000
     13 C16         17.4820    64.0900    45.7450 ca         1 GY2       0.148100
     14 C17         17.3520    63.5370    44.4740 ca         1 GY2      -0.182000
     15 C18         17.6590    64.2990    43.3540 ca         1 GY2      -0.094000
     16 C20         16.7300    62.1110    46.8150 c3         1 GY2       0.123700
     17 N07         15.9060    66.6500    39.0390 nb         1 GY2      -0.714000
     18 N09         18.0140    66.7070    40.1050 nb         1 GY2      -0.801000
     19 N11         18.3650    66.3950    42.3290 nh         1 GY2      -0.648700
     20 O19         17.2100    63.4400    46.8880 os         1 GY2      -0.313900
     21 CL1         17.9760    67.0190    37.5410 cl         1 GY2      -0.140000
     22 H1          20.2780    66.7530    43.0430 h1         1 GY2       0.050700
     23 H2          20.2500    65.8660    41.5120 h1         1 GY2       0.050700
     24 H3          19.8990    67.6010    41.5420 h1         1 GY2       0.050700
     25 H4          12.1670    66.3850    41.5470 ha         1 GY2       0.155000
     26 H5          13.3580    66.4730    39.3740 ha         1 GY2       0.160000
     27 H6          15.8770    66.4960    43.6370 ha         1 GY2       0.163000
     28 H7          18.5340    67.1920    44.8680 ha         1 GY2       0.145500
     29 H8          18.0320    65.8420    46.8610 ha         1 GY2       0.147500
     30 H9          17.0240    62.5170    44.3300 ha         1 GY2       0.147500
     31 H10         17.5590    63.8550    42.3710 ha         1 GY2       0.145500
     32 H11         16.5580    61.7890    47.8390 h1         1 GY2       0.044033
     33 H12         15.7900    62.0480    46.2620 h1         1 GY2       0.044033
     34 H13         17.4580    61.4390    46.3530 h1         1 GY2       0.044033
     35 F22         13.3440    66.4410    43.8530 f          1 GY2      -0.139900
@<TRIPOS>BOND
     1     1    19 1   
     2     1    22 1   
     3     1    23 1   
     4     1    24 1   
     5     2    11 ar  
     6     2    15 ar  
     7     2    19 1   
     8     3     4 ar  
     9     3     8 ar  
    10     3    35 1   
    11     4     5 ar  
    12     4    25 1   
    13     5     6 ar  
    14     5    26 1   
    15     6     7 ar  
    16     6    17 ar  
    17     7     8 ar  
    18     7    10 ar  
    19     8    27 1   
    20     9    17 ar  
    21     9    18 ar  
    22     9    21 1   
    23    10    18 ar  
    24    10    19 1   
    25    11    12 ar  
    26    11    28 1   
    27    12    13 ar  
    28    12    29 1   
    29    13    14 ar  
    30    13    20 1   
    31    14    15 ar  
    32    14    30 1   
    33    15    31 1   
    34    16    20 1   
    35    16    32 1   
    36    16    33 1   
    37    16    34 1   
@<TRIPOS>SUBSTRUCTURE
     1 GY2         1 TEMP              0 ****  ****    0 ROOT
