@<TRIPOS>MOLECULE
GY3
   45    47     1     0     0
SMALL
bcc


@<TRIPOS>ATOM
      1 O1          -4.6140    -0.6810     0.0440 os         1 GY3      -0.398600
      2 C2          -3.9670    -0.6180    -1.2000 c3         1 GY3       0.109400
      3 C3          -3.2360     0.6930    -1.4670 c3         1 GY3       0.075500
      4 N4          -1.9700     0.8110    -0.7850 n          1 GY3      -0.353900
      5 C5          -0.7440     0.8010    -1.3450 c          1 GY3       0.716000
      6 C6           0.2470     0.9780    -0.2100 c5         1 GY3      -0.190400
      7 C7          -0.6160     0.8780     1.0330 c          1 GY3       0.716000
      8 N8          -1.8980     0.8700     0.6110 n          1 GY3      -0.353900
      9 C9          -3.0680     0.6420     1.4250 c3         1 GY3       0.075500
     10 C10         -3.7620    -0.6900     1.1610 c3         1 GY3       0.109400
     11 O11         -0.4990     0.7070    -2.5310 o          1 GY3      -0.594500
     12 O12         -0.2440     0.8500     2.1880 o          1 GY3      -0.594500
     13 C19          1.4610     0.0930    -0.2260 ca         1 GY3      -0.042300
     14 C20          2.7440     0.6410    -0.3180 ca         1 GY3      -0.046300
     15 C21          3.8490    -0.2080    -0.2930 ca         1 GY3      -0.127000
     16 C22          3.7210    -1.5850    -0.1650 ca         1 GY3      -0.062300
     17 C23          2.4390    -2.1130    -0.0720 ca         1 GY3      -0.121000
     18 C24          1.3120    -1.2970    -0.1000 ca         1 GY3      -0.031800
     19 C25         -0.0180    -1.9260     0.0050 ce         1 GY3      -0.127200
     20 C26         -0.3380    -2.8510     0.9050 c2         1 GY3      -0.200000
     21 C27          4.9270    -2.4760    -0.1150 c3         1 GY3      -0.047800
     22 C28          2.9940     2.1260    -0.3830 c3         1 GY3      -0.038100
     23 C29          2.9320     2.7820     0.9970 c3         1 GY3      -0.092100
     24 H2          -3.2670    -1.4560    -1.3290 h1         1 GY3       0.059200
     25 H2A         -4.7450    -0.7230    -1.9570 h1         1 GY3       0.059200
     26 H3          -3.0030     0.7490    -2.5290 h1         1 GY3       0.076950
     27 H3A         -3.8740     1.5480    -1.2340 h1         1 GY3       0.076950
     28 H6           0.5470     2.0310    -0.2730 hc         1 GY3       0.112700
     29 H9          -2.7130     0.6580     2.4540 h1         1 GY3       0.076950
     30 H9A         -3.7740     1.4670     1.3160 h1         1 GY3       0.076950
     31 H10         -4.3910    -0.9120     2.0240 h1         1 GY3       0.059200
     32 H10A        -3.0090    -1.4860     1.0850 h1         1 GY3       0.059200
     33 H21          4.8400     0.2240    -0.3800 ha         1 GY3       0.130000
     34 H23          2.3080    -3.1860     0.0000 ha         1 GY3       0.133000
     35 H25         -0.7710    -1.6420    -0.7240 ha         1 GY3       0.123000
     36 H26         -1.3200    -3.3040     0.9120 ha         1 GY3       0.115500
     37 H26A         0.3580    -3.1830     1.6650 ha         1 GY3       0.115500
     38 H27          5.2560    -2.6270     0.9150 hc         1 GY3       0.043700
     39 H27A         4.7140    -3.4590    -0.5340 hc         1 GY3       0.043700
     40 H27B         5.7660    -2.0480    -0.6630 hc         1 GY3       0.043700
     41 H28          3.9840     2.2970    -0.8100 hc         1 GY3       0.047700
     42 H28A         2.2930     2.6160    -1.0630 hc         1 GY3       0.047700
     43 H29          1.9590     2.6440     1.4700 hc         1 GY3       0.039033
     44 H29A         3.6800     2.3500     1.6620 hc         1 GY3       0.039033
     45 H29B         3.1220     3.8530     0.9260 hc         1 GY3       0.039033
@<TRIPOS>BOND
     1     1     2 1   
     2     1    10 1   
     3     2     3 1   
     4     2    24 1   
     5     2    25 1   
     6     3     4 1   
     7     3    26 1   
     8     3    27 1   
     9     4     5 1   
    10     4     8 1   
    11     5     6 1   
    12     5    11 2   
    13     6     7 1   
    14     6    13 1   
    15     6    28 1   
    16     7     8 1   
    17     7    12 2   
    18     8     9 1   
    19     9    10 1   
    20     9    29 1   
    21     9    30 1   
    22    10    31 1   
    23    10    32 1   
    24    13    14 ar  
    25    13    18 ar  
    26    14    15 ar  
    27    14    22 1   
    28    15    16 ar  
    29    15    33 1   
    30    16    17 ar  
    31    16    21 1   
    32    17    18 ar  
    33    17    34 1   
    34    18    19 1   
    35    19    20 2   
    36    19    35 1   
    37    20    36 1   
    38    20    37 1   
    39    21    38 1   
    40    21    39 1   
    41    21    40 1   
    42    22    23 1   
    43    22    41 1   
    44    22    42 1   
    45    23    43 1   
    46    23    44 1   
    47    23    45 1   
@<TRIPOS>SUBSTRUCTURE
     1 GY3         1 TEMP              0 ****  ****    0 ROOT
