@<TRIPOS>MOLECULE
GY3
   45    47     1     0     0
SMALL
No Charge or Current Charge


@<TRIPOS>ATOM
      1 O1          -4.6590    -0.5660    -0.0450 os         1 GY3      -0.445000
      2 C2          -3.9370    -0.5450    -1.2980 c3         1 GY3       0.132600
      3 C3          -3.2830     0.8360    -1.5350 c3         1 GY3       0.075500
      4 N4          -2.0350     1.0650    -0.7750 n          1 GY3      -0.286900
      5 C5          -0.7580     0.7850    -1.2800 c          1 GY3       0.573500
      6 C6           0.2110     0.9560    -0.1070 c5         1 GY3      -0.190400
      7 C7          -0.7090     0.7330     1.0980 c          1 GY3       0.573500
      8 N8          -2.0070     1.0280     0.6550 n          1 GY3      -0.286900
      9 C9          -3.2230     0.7610     1.4520 c3         1 GY3       0.075500
     10 C10         -3.8800    -0.6090     1.1730 c3         1 GY3       0.132600
     11 O11         -0.5310     0.3590    -2.4050 o          1 GY3      -0.519000
     12 O12         -0.4280     0.3130     2.2130 o          1 GY3      -0.519000
     13 C19          1.4670     0.0570    -0.1560 ca         1 GY3      -0.042300
     14 C20          2.7660     0.6290    -0.2890 ca         1 GY3      -0.046300
     15 C21          3.9040    -0.2010    -0.2890 ca         1 GY3      -0.109000
     16 C22          3.7860    -1.5910    -0.1680 ca         1 GY3      -0.062300
     17 C23          2.5130    -2.1610    -0.0460 ca         1 GY3      -0.103000
     18 C24          1.3550    -1.3600    -0.0440 ca         1 GY3      -0.031800
     19 C25          0.0390    -2.0580     0.0740 ce         1 GY3      -0.177200
     20 C26         -0.2190    -3.0440     0.9610 c2         1 GY3      -0.300000
     21 C27          5.0270    -2.4720    -0.1670 c3         1 GY3      -0.047800
     22 C28          3.0000     2.1360    -0.4270 c3         1 GY3      -0.038100
     23 C29          3.0230     2.8570     0.9360 c3         1 GY3      -0.092100
     24 H2          -3.1750    -1.3350    -1.3350 h1         1 GY3       0.059200
     25 H2A         -4.6400    -0.7300    -2.1210 h1         1 GY3       0.059200
     26 H3          -3.0630     0.9340    -2.6060 h1         1 GY3       0.076950
     27 H3A         -4.0040     1.6240    -1.2840 h1         1 GY3       0.076950
     28 H6           0.3720     2.0350    -0.0710 hc         1 GY3       0.112700
     29 H9          -2.9600     0.8070     2.5170 h1         1 GY3       0.076950
     30 H9A         -3.9540     1.5580     1.2680 h1         1 GY3       0.076950
     31 H10         -4.5430    -0.8430     2.0160 h1         1 GY3       0.059200
     32 H10A        -3.1130    -1.3940     1.1320 h1         1 GY3       0.059200
     33 H21          4.8930     0.2410    -0.3810 ha         1 GY3       0.112000
     34 H23          2.4190    -3.2410     0.0380 ha         1 GY3       0.115000
     35 H25         -0.7380    -1.7400    -0.6200 ha         1 GY3       0.173000
     36 H26         -1.1940    -3.5300     1.0060 ha         1 GY3       0.165500
     37 H26A         0.5310    -3.3880     1.6740 ha         1 GY3       0.165500
     38 H27          5.4100    -2.6050     0.8510 hc         1 GY3       0.043700
     39 H27A         4.8130    -3.4660    -0.5780 hc         1 GY3       0.043700
     40 H27B         5.8300    -2.0320    -0.7720 hc         1 GY3       0.043700
     41 H28          3.9590     2.3220    -0.9260 hc         1 GY3       0.047700
     42 H28A         2.2520     2.5960    -1.0820 hc         1 GY3       0.047700
     43 H29          2.0760     2.7230     1.4710 hc         1 GY3       0.039033
     44 H29A         3.8300     2.4620     1.5650 hc         1 GY3       0.039033
     45 H29B         3.1900     3.9320     0.7980 hc         1 GY3       0.039033
@<TRIPOS>BOND
     1     1     2 1   
     2     1    10 1   
     3     2     3 1   
     4     2    24 1   
     5     2    25 1   
     6     3     4 1   
     7     3    26 1   
     8     3    27 1   
     9     4     5 1   
    10     4     8 1   
    11     5     6 1   
    12     5    11 2   
    13     6     7 1   
    14     6    13 1   
    15     6    28 1   
    16     7     8 1   
    17     7    12 2   
    18     8     9 1   
    19     9    10 1   
    20     9    29 1   
    21     9    30 1   
    22    10    31 1   
    23    10    32 1   
    24    13    14 ar  
    25    13    18 ar  
    26    14    15 ar  
    27    14    22 1   
    28    15    16 ar  
    29    15    33 1   
    30    16    17 ar  
    31    16    21 1   
    32    17    18 ar  
    33    17    34 1   
    34    18    19 1   
    35    19    20 2   
    36    19    35 1   
    37    20    36 1   
    38    20    37 1   
    39    21    38 1   
    40    21    39 1   
    41    21    40 1   
    42    22    23 1   
    43    22    41 1   
    44    22    42 1   
    45    23    43 1   
    46    23    44 1   
    47    23    45 1   
@<TRIPOS>SUBSTRUCTURE
     1 GY3         1 TEMP              0 ****  ****    0 ROOT
