@<TRIPOS>MOLECULE
GY4
   41    43     1     0     0
SMALL
abcg2


@<TRIPOS>ATOM
      1 C1          -3.2920     1.1990    -1.4980 c          1 GY4       0.499200
      2 C10          1.8380    -0.3770     0.7950 ca         1 GY4      -0.092000
      3 C11          2.5610     0.7780     1.0460 ca         1 GY4      -0.095500
      4 C12          3.7960     0.9470     0.4390 ca         1 GY4       0.120000
      5 C13          4.3090    -0.0130    -0.4170 ca         1 GY4      -0.095500
      6 C14          3.5670    -1.1620    -0.6620 ca         1 GY4      -0.092000
      7 C15         -0.8370    -3.4190     1.2720 c5         1 GY4       0.113000
      8 C16         -2.2860    -3.8460     1.4510 c5         1 GY4      -0.093400
      9 C17         -3.0670    -2.6500     0.9240 c5         1 GY4      -0.092400
     10 C2          -2.4710     2.0230    -0.6350 cc         1 GY4      -0.025100
     11 C3          -1.6400     1.4400     0.2780 cd         1 GY4       0.061400
     12 C4          -0.7330     2.2370     1.2120 c          1 GY4       0.731200
     13 C5          -2.2630    -0.6590    -0.3920 cc         1 GY4       0.406900
     14 C6          -2.2230    -2.1600    -0.2640 c5         1 GY4       0.091400
     15 C8           1.5470    -2.6260    -0.3070 c3         1 GY4      -0.097100
     16 C9           2.3310    -1.3610    -0.0600 ca         1 GY4      -0.088300
     17 N1          -1.5760     0.0810     0.3980 nd         1 GY4      -0.554300
     18 N2          -0.8830    -2.6250     0.0490 n          1 GY4      -0.404800
     19 N3          -3.1050    -0.1440    -1.3220 ns         1 GY4      -0.381400
     20 O1          -4.0740     1.6610    -2.3250 o          1 GY4      -0.626000
     21 O2          -2.6190     3.3480    -0.7890 oh         1 GY4      -0.481100
     22 O3          -0.3110     3.3220     0.7760 o          1 GY4      -0.695500
     23 O4          -0.5010     1.7160     2.3150 o          1 GY4      -0.695500
     24 O5          -0.0500    -1.6890    -1.8070 o          1 GY4      -0.594100
     25 H2           2.1520     1.5310     1.7060 ha         1 GY4       0.143000
     26 H3           5.2700     0.1280    -0.8930 ha         1 GY4       0.143000
     27 H4           3.9690    -1.9100    -1.3350 ha         1 GY4       0.130500
     28 H5          -0.4950    -2.8170     2.1190 h1         1 GY4       0.050200
     29 H6          -0.1710    -4.2730     1.1680 h1         1 GY4       0.050200
     30 H7          -2.4930    -4.7350     0.8510 hc         1 GY4       0.045200
     31 H8          -2.5210    -4.0790     2.4880 hc         1 GY4       0.045200
     32 H9          -4.0840    -2.8930     0.6200 hc         1 GY4       0.064700
     33 H10         -3.1210    -1.8720     1.6890 hc         1 GY4       0.064700
     34 H11         -2.5750    -2.6160    -1.1950 h1         1 GY4       0.052700
     35 H12          1.5700    -3.2470     0.5890 hc         1 GY4       0.053700
     36 H13          2.0230    -3.2060    -1.1000 hc         1 GY4       0.053700
     37 H14         -3.6290    -0.7670    -1.9250 hn         1 GY4       0.308500
     38 H15         -3.3010     3.4880    -1.4630 ho         1 GY4       0.456000
     39 C7           0.1390    -2.2880    -0.7560 c          1 GY4       0.617100
     40 CL1          4.7100     2.3900     0.7500 cl         1 GY4      -0.227000
     41 H1           0.8640    -0.4830     1.2560 ha         1 GY4       0.130500
@<TRIPOS>BOND
     1     1    10 1   
     2     1    19 1   
     3     1    20 2   
     4     2     3 ar  
     5     2    16 ar  
     6     2    41 1   
     7     3     4 ar  
     8     3    25 1   
     9     4     5 ar  
    10     4    40 1   
    11     5     6 ar  
    12     5    26 1   
    13     6    16 ar  
    14     6    27 1   
    15     7     8 1   
    16     7    18 1   
    17     7    28 1   
    18     7    29 1   
    19     8     9 1   
    20     8    30 1   
    21     8    31 1   
    22     9    14 1   
    23     9    32 1   
    24     9    33 1   
    25    10    11 2   
    26    10    21 1   
    27    11    12 1   
    28    11    17 1   
    29    12    22 1   
    30    12    23 1   
    31    13    14 1   
    32    13    17 2   
    33    13    19 1   
    34    14    18 1   
    35    14    34 1   
    36    15    16 1   
    37    15    35 1   
    38    15    36 1   
    39    15    39 1   
    40    18    39 1   
    41    19    37 1   
    42    21    38 1   
    43    24    39 2   
@<TRIPOS>SUBSTRUCTURE
     1 GY4         1 TEMP              0 ****  ****    0 ROOT
