@<TRIPOS>MOLECULE
GY4
   41    43     1     0     0
SMALL
No Charge or Current Charge


@<TRIPOS>ATOM
      1 C1          -3.2010     1.1890    -1.7300 c          1 GY4       0.499200
      2 C10          1.9340    -0.6790     0.9670 ca         1 GY4      -0.092000
      3 C11          2.6430     0.4790     1.3320 ca         1 GY4      -0.095500
      4 C12          3.8050     0.8410     0.6320 ca         1 GY4       0.120000
      5 C13          4.2590     0.0480    -0.4330 ca         1 GY4      -0.095500
      6 C14          3.5490    -1.1090    -0.8020 ca         1 GY4      -0.092000
      7 C15         -0.7780    -3.5980     1.1720 c5         1 GY4       0.113000
      8 C16         -2.2680    -3.8730     1.5020 c5         1 GY4      -0.093400
      9 C17         -2.9080    -2.4860     1.2590 c5         1 GY4      -0.092400
     10 C2          -2.5110     2.1120    -0.8110 cc         1 GY4      -0.025100
     11 C3          -1.7790     1.6740     0.3050 cd         1 GY4       0.061400
     12 C4          -1.0790     2.6600     1.2460 c          1 GY4       0.731200
     13 C5          -2.3440    -0.5600    -0.3220 cc         1 GY4       0.406900
     14 C6          -2.2560    -2.0720    -0.0940 c5         1 GY4       0.091400
     15 C8           1.6020    -2.7290    -0.5080 c3         1 GY4      -0.097100
     16 C9           2.3810    -1.4780    -0.1050 ca         1 GY4      -0.088300
     17 N1          -1.7170     0.2690     0.5210 nd         1 GY4      -0.554300
     18 N2          -0.8850    -2.6240     0.0630 n          1 GY4      -0.404800
     19 N3          -3.0580    -0.1050    -1.3940 ns         1 GY4      -0.381400
     20 O1          -3.8490     1.5390    -2.7080 o          1 GY4      -0.626000
     21 O2          -2.6880     3.4080    -1.1900 oh         1 GY4      -0.481100
     22 O3          -1.1270     3.8710     1.0560 o          1 GY4      -0.695500
     23 O4          -0.4680     2.2020     2.2060 o          1 GY4      -0.695500
     24 O5          -0.1080    -1.8180    -1.9340 o          1 GY4      -0.594100
     25 H2           2.2910     1.0950     2.1560 ha         1 GY4       0.143000
     26 H3           5.1590     0.3310    -0.9740 ha         1 GY4       0.143000
     27 H4           3.9090    -1.7150    -1.6320 ha         1 GY4       0.130500
     28 H5          -0.2520    -3.1540     2.0280 h1         1 GY4       0.050200
     29 H6          -0.2590    -4.5200     0.8770 h1         1 GY4       0.050200
     30 H7          -2.6890    -4.6260     0.8250 hc         1 GY4       0.045200
     31 H8          -2.4100    -4.2360     2.5260 hc         1 GY4       0.045200
     32 H9          -4.0010    -2.5260     1.2020 hc         1 GY4       0.064700
     33 H10         -2.6490    -1.7940     2.0700 hc         1 GY4       0.064700
     34 H11         -2.7550    -2.5930    -0.9220 h1         1 GY4       0.052700
     35 H12          1.6510    -3.4420     0.3200 hc         1 GY4       0.053700
     36 H13          2.0660    -3.1850    -1.3900 hc         1 GY4       0.053700
     37 H14         -3.5070    -0.7730    -2.0050 hn         1 GY4       0.308500
     38 H15         -3.2460     3.3760    -2.0030 ho         1 GY4       0.456000
     39 C7           0.1450    -2.3690    -0.8690 c          1 GY4       0.617100
     40 Cl1          4.6910     2.2890     1.0910 cl         1 GY4      -0.227000
     41 H1           1.0330    -0.9460     1.5160 ha         1 GY4       0.130500
@<TRIPOS>BOND
     1     1    10 1   
     2     1    19 1   
     3     1    20 2   
     4     2     3 ar  
     5     2    16 ar  
     6     2    41 1   
     7     3     4 ar  
     8     3    25 1   
     9     4     5 ar  
    10     4    40 1   
    11     5     6 ar  
    12     5    26 1   
    13     6    16 ar  
    14     6    27 1   
    15     7     8 1   
    16     7    18 1   
    17     7    28 1   
    18     7    29 1   
    19     8     9 1   
    20     8    30 1   
    21     8    31 1   
    22     9    14 1   
    23     9    32 1   
    24     9    33 1   
    25    10    11 2   
    26    10    21 1   
    27    11    12 1   
    28    11    17 1   
    29    12    22 1   
    30    12    23 1   
    31    13    14 1   
    32    13    17 2   
    33    13    19 1   
    34    14    18 1   
    35    14    34 1   
    36    15    16 1   
    37    15    35 1   
    38    15    36 1   
    39    15    39 1   
    40    18    39 1   
    41    19    37 1   
    42    21    38 1   
    43    24    39 2   
@<TRIPOS>SUBSTRUCTURE
     1 GY4         1 TEMP              0 ****  ****    0 ROOT
