@<TRIPOS>MOLECULE
GY5
   54    56     1     0     0
SMALL
abcg2


@<TRIPOS>ATOM
      1 N           -1.1400    -0.8820     1.4100 n          1 GY5      -0.442800
      2 C           -7.4180     0.5510     0.2070 ca         1 GY5      -0.074500
      3 O           -1.1800     0.8190    -0.0570 o          1 GY5      -0.543100
      4 C01          0.9830    -1.0120     0.1570 cc         1 GY5       0.472900
      5 C02          2.7120    -0.5650    -1.2820 cd         1 GY5       0.030400
      6 C03          2.2190    -1.4070    -2.2330 cc         1 GY5       0.048900
      7 C04          0.9800    -2.1300    -1.9650 c          1 GY5       0.509200
      8 C05          3.9740     0.2170    -1.4720 c          1 GY5       0.627300
      9 C06          5.5190     1.7600    -0.3810 c3         1 GY5       0.109000
     10 C07         -0.6080    -2.0890     3.3390 c5         1 GY5      -0.096400
     11 C08          0.6100    -2.0600     2.4250 c5         1 GY5      -0.088400
     12 C09          0.3140    -0.8760     1.4940 c5         1 GY5       0.075400
     13 C1           5.4520     2.7890     0.7230 c3         1 GY5       0.138600
     14 C10         -1.7580    -1.7760     2.3920 c5         1 GY5       0.102000
     15 C11         -1.7790     0.0280     0.6490 c          1 GY5       0.598100
     16 C12         -3.2930    -0.0120     0.7290 c3         1 GY5       0.085600
     17 C13         -7.8570     1.3280    -0.8520 ca         1 GY5      -0.143000
     18 C14         -6.9190     1.9150    -1.6950 ca         1 GY5      -0.074500
     19 C15         -5.5640     1.7280    -1.4820 ca         1 GY5      -0.166500
     20 C16         -5.1280     0.9430    -0.4130 ca         1 GY5       0.134100
     21 C17         -6.0600     0.3510     0.4350 ca         1 GY5      -0.166500
     22 N01          2.0730    -0.3840    -0.0840 nd         1 GY5      -0.606300
     23 N02          0.4350    -1.8710    -0.7410 ns         1 GY5      -0.382400
     24 N03          4.3120     0.9690    -0.4180 ns         1 GY5      -0.489900
     25 O01          2.7740    -1.6380    -3.4170 oh         1 GY5      -0.469100
     26 O02          0.4850    -2.8970    -2.7770 o          1 GY5      -0.558000
     27 O03          4.6260     0.1660    -2.5060 o          1 GY5      -0.591100
     28 O1          -3.7880     0.8190    -0.2810 os         1 GY5      -0.313100
     29 O11          5.3080     2.1280     1.9560 os         1 GY5      -0.460000
     30 C18          5.1900     3.0170     3.0380 c3         1 GY5       0.146900
     31 H10          5.6460     2.2820    -1.3310 h1         1 GY5       0.057200
     32 H03          6.3990     1.1230    -0.2470 h1         1 GY5       0.057200
     33 H05         -0.7380    -3.0460     3.8410 hc         1 GY5       0.063200
     34 H11         -0.5280    -1.3130     4.1030 hc         1 GY5       0.063200
     35 H07          1.5520    -1.9250     2.9530 hc         1 GY5       0.066700
     36 H06          0.6740    -2.9900     1.8560 hc         1 GY5       0.066700
     37 H08          0.6750     0.0570     1.9350 h1         1 GY5       0.097700
     38 H13          6.3700     3.3910     0.7000 h1         1 GY5       0.032700
     39 H12          4.6110     3.4740     0.5470 h1         1 GY5       0.032700
     40 H1          -2.5910    -1.2930     2.9040 h1         1 GY5       0.050700
     41 H09         -2.1320    -2.6810     1.9070 h1         1 GY5       0.050700
     42 H2          -3.6500    -1.0440     0.6150 h1         1 GY5       0.050200
     43 H3          -3.6030     0.3290     1.7260 h1         1 GY5       0.050200
     44 H120        -8.9150     1.4760    -1.0230 ha         1 GY5       0.117000
     45 H130        -7.2430     2.5230    -2.5300 ha         1 GY5       0.114000
     46 H14         -4.8360     2.1840    -2.1400 ha         1 GY5       0.121500
     47 H15         -5.7570    -0.2600     1.2740 ha         1 GY5       0.121500
     48 H01         -0.4360    -2.3400    -0.5160 hn         1 GY5       0.338500
     49 H04          3.7510     0.8880     0.4180 hn         1 GY5       0.348500
     50 H02          2.2170    -2.2760    -3.8910 ho         1 GY5       0.490000
     51 H112         6.0760     3.6540     3.1430 h1         1 GY5       0.029033
     52 H111         4.3150     3.6700     2.9370 h1         1 GY5       0.029033
     53 H113         5.0790     2.4280     3.9470 h1         1 GY5       0.029033
     54 H           -8.1330     0.0870     0.8740 ha         1 GY5       0.114000
@<TRIPOS>BOND
     1     1    12 1   
     2     1    14 1   
     3     1    15 1   
     4     2    17 ar  
     5     2    21 ar  
     6     2    54 1   
     7     3    15 2   
     8     4    12 1   
     9     4    22 2   
    10     4    23 1   
    11     5     6 2   
    12     5     8 1   
    13     5    22 1   
    14     6     7 1   
    15     6    25 1   
    16     7    23 1   
    17     7    26 2   
    18     8    24 1   
    19     8    27 2   
    20     9    13 1   
    21     9    24 1   
    22     9    31 1   
    23     9    32 1   
    24    10    11 1   
    25    10    14 1   
    26    10    33 1   
    27    10    34 1   
    28    11    12 1   
    29    11    35 1   
    30    11    36 1   
    31    12    37 1   
    32    13    29 1   
    33    13    38 1   
    34    13    39 1   
    35    14    40 1   
    36    14    41 1   
    37    15    16 1   
    38    16    28 1   
    39    16    42 1   
    40    16    43 1   
    41    17    18 ar  
    42    17    44 1   
    43    18    19 ar  
    44    18    45 1   
    45    19    20 ar  
    46    19    46 1   
    47    20    21 ar  
    48    20    28 1   
    49    21    47 1   
    50    23    48 1   
    51    24    49 1   
    52    25    50 1   
    53    29    30 1   
    54    30    51 1   
    55    30    52 1   
    56    30    53 1   
@<TRIPOS>SUBSTRUCTURE
     1 GY5         1 TEMP              0 ****  ****    0 ROOT
