@<TRIPOS>MOLECULE
GY5
   54    56     1     0     0
SMALL
No Charge or Current Charge


@<TRIPOS>ATOM
      1 N           -1.2230    -1.3500     1.4890 n          1 GY5      -0.442800
      2 C           -7.6250     0.4990     0.2640 ca         1 GY5      -0.074500
      3 O           -1.1890     0.7180     0.5060 o          1 GY5      -0.543100
      4 C01          1.0580    -1.2840     0.2980 cc         1 GY5       0.472900
      5 C02          3.0140    -0.5160    -0.8180 cd         1 GY5       0.030400
      6 C03          2.4480    -0.9540    -2.0200 cc         1 GY5       0.048900
      7 C04          1.1230    -1.6000    -2.0850 c          1 GY5       0.509200
      8 C05          4.3810     0.1370    -0.8030 c          1 GY5       0.627300
      9 C06          5.9870     1.2090     0.8300 c3         1 GY5       0.109000
     10 C07         -0.8230    -3.0810     3.0290 c5         1 GY5      -0.096400
     11 C08          0.3900    -2.9590     2.0780 c5         1 GY5      -0.088400
     12 C09          0.2620    -1.4880     1.5840 c5         1 GY5       0.075400
     13 C1           5.9600     2.7060     0.4420 c3         1 GY5       0.138600
     14 C10         -1.9530    -2.4310     2.1920 c5         1 GY5       0.102000
     15 C11         -1.8600    -0.2120     0.9390 c          1 GY5       0.598100
     16 C12         -3.4090    -0.2140     0.8710 c3         1 GY5       0.085600
     17 C13         -8.0220     1.6530    -0.4330 ca         1 GY5      -0.143000
     18 C14         -7.0560     2.5500    -0.9180 ca         1 GY5      -0.074500
     19 C15         -5.6910     2.2910    -0.7050 ca         1 GY5      -0.166500
     20 C16         -5.2850     1.1400    -0.0090 ca         1 GY5       0.134100
     21 C17         -6.2590     0.2400     0.4780 ca         1 GY5      -0.166500
     22 N01          2.2620    -0.7070     0.3750 nd         1 GY5      -0.606300
     23 N02          0.5290    -1.7170    -0.8840 ns         1 GY5      -0.382400
     24 N03          4.7550     0.4930     0.4730 ns         1 GY5      -0.489900
     25 O01          3.0320    -0.8460    -3.2450 oh         1 GY5      -0.469100
     26 O02          0.5940    -2.0000    -3.1140 o          1 GY5      -0.558000
     27 O03          5.1110     0.3450    -1.7660 o          1 GY5      -0.591100
     28 O1          -3.9320     0.9390     0.1690 os         1 GY5      -0.313100
     29 O11          4.8790     3.3440     1.1500 os         1 GY5      -0.460000
     30 C18          4.7300     4.7460     0.8690 c3         1 GY5       0.146900
     31 H10          6.8360     0.7240     0.3310 h1         1 GY5       0.057200
     32 H03          6.1430     1.1210     1.9130 h1         1 GY5       0.057200
     33 H05         -1.0490    -4.1180     3.3030 hc         1 GY5       0.063200
     34 H11         -0.6530    -2.5260     3.9600 hc         1 GY5       0.063200
     35 H07          1.3450    -3.1480     2.5820 hc         1 GY5       0.066700
     36 H06          0.3120    -3.6760     1.2510 hc         1 GY5       0.066700
     37 H08          0.6410    -0.7960     2.3480 h1         1 GY5       0.097700
     38 H13          6.9210     3.1630     0.7100 h1         1 GY5       0.032700
     39 H12          5.8250     2.8020    -0.6440 h1         1 GY5       0.032700
     40 H1          -2.7590    -2.0540     2.8350 h1         1 GY5       0.050700
     41 H09         -2.3800    -3.1410     1.4710 h1         1 GY5       0.050700
     42 H2          -3.7170    -1.1400     0.3710 h1         1 GY5       0.050200
     43 H3          -3.7840    -0.2360     1.9010 h1         1 GY5       0.050200
     44 H120        -9.0790     1.8520    -0.5970 ha         1 GY5       0.117000
     45 H130        -7.3640     3.4430    -1.4580 ha         1 GY5       0.114000
     46 H14         -4.9430     2.9850    -1.0810 ha         1 GY5       0.121500
     47 H15         -5.9790    -0.6590     1.0200 ha         1 GY5       0.121500
     48 H01         -0.3820    -2.1520    -0.8760 hn         1 GY5       0.338500
     49 H04          4.0680     0.2950     1.1920 hn         1 GY5       0.348500
     50 H02          2.4010    -1.2390    -3.8920 ho         1 GY5       0.490000
     51 H112         5.6390     5.2980     1.1430 h1         1 GY5       0.029033
     52 H111         4.5310     4.9120    -0.1980 h1         1 GY5       0.029033
     53 H113         3.8920     5.1630     1.4420 h1         1 GY5       0.029033
     54 H           -8.3750    -0.1940     0.6390 ha         1 GY5       0.114000
@<TRIPOS>BOND
     1     1    12 1   
     2     1    14 1   
     3     1    15 1   
     4     2    17 ar  
     5     2    21 ar  
     6     2    54 1   
     7     3    15 2   
     8     4    12 1   
     9     4    22 2   
    10     4    23 1   
    11     5     6 2   
    12     5     8 1   
    13     5    22 1   
    14     6     7 1   
    15     6    25 1   
    16     7    23 1   
    17     7    26 2   
    18     8    24 1   
    19     8    27 2   
    20     9    13 1   
    21     9    24 1   
    22     9    31 1   
    23     9    32 1   
    24    10    11 1   
    25    10    14 1   
    26    10    33 1   
    27    10    34 1   
    28    11    12 1   
    29    11    35 1   
    30    11    36 1   
    31    12    37 1   
    32    13    29 1   
    33    13    38 1   
    34    13    39 1   
    35    14    40 1   
    36    14    41 1   
    37    15    16 1   
    38    16    28 1   
    39    16    42 1   
    40    16    43 1   
    41    17    18 ar  
    42    17    44 1   
    43    18    19 ar  
    44    18    45 1   
    45    19    20 ar  
    46    19    46 1   
    47    20    21 ar  
    48    20    28 1   
    49    21    47 1   
    50    23    48 1   
    51    24    49 1   
    52    25    50 1   
    53    29    30 1   
    54    30    51 1   
    55    30    52 1   
    56    30    53 1   
@<TRIPOS>SUBSTRUCTURE
     1 GY5         1 TEMP              0 ****  ****    0 ROOT
