@<TRIPOS>MOLECULE
GY6
   56    59     1     0     0
SMALL
No Charge or Current Charge


@<TRIPOS>ATOM
      1 C01          0.5210    -1.0390    -0.4510 cc         1 GY6       0.474900
      2 C03         -1.4500    -1.8750     0.5870 cd         1 GY6       0.028400
      3 C04         -0.6700    -2.8910     1.1500 cc         1 GY6       0.049900
      4 C07          0.7810    -3.0080     0.9050 c          1 GY6       0.510200
      5 C11         -2.9370    -1.8030     0.8650 c          1 GY6       0.628300
      6 C14         -4.9370    -0.3850     0.2840 c3         1 GY6       0.111000
      7 C17         -5.2580     0.8660    -0.5530 c3         1 GY6      -0.049100
      8 C21          2.4870     0.3560    -3.3530 c5         1 GY6      -0.096400
      9 C24          1.3990    -0.5870    -2.7860 c5         1 GY6      -0.087400
     10 C27          1.2120    -0.0190    -1.3490 c5         1 GY6       0.074400
     11 C30          3.5060     0.4050    -2.1860 c5         1 GY6       0.106000
     12 C35          7.2100     1.4330     0.9800 ca         1 GY6      -0.080000
     13 C37          6.7130     0.1350     0.7790 ca         1 GY6      -0.102500
     14 C39          5.3430    -0.0710     0.5460 ca         1 GY6       0.148000
     15 C41          4.4560     1.0260     0.5100 ca         1 GY6      -0.137600
     16 C42          4.9570     2.3250     0.7240 ca         1 GY6       0.148000
     17 C44          6.3290     2.5270     0.9540 ca         1 GY6      -0.102500
     18 C46         -9.4730     1.8920    -0.3600 ca         1 GY6      -0.109000
     19 C48         -8.5750     2.4290     0.5770 ca         1 GY6      -0.109000
     20 C50         -7.2100     2.0990     0.5130 ca         1 GY6      -0.104000
     21 C52         -6.7360     1.2290    -0.4880 ca         1 GY6      -0.081300
     22 C53         -7.6410     0.6920    -1.4240 ca         1 GY6      -0.104000
     23 C55         -9.0060     1.0230    -1.3600 ca         1 GY6      -0.109000
     24 N02         -0.7960    -0.9250    -0.2470 nd         1 GY6      -0.616300
     25 N09          1.2610    -2.0460     0.0970 ns         1 GY6      -0.382400
     26 N13         -3.5180    -0.7340     0.2210 ns         1 GY6      -0.499900
     27 N29          2.6200     0.3230    -1.0030 n          1 GY6      -0.422800
     28 O05         -1.1380    -3.8740     1.9680 oh         1 GY6      -0.470100
     29 O08          1.4970    -3.8810     1.3750 o          1 GY6      -0.557000
     30 O12         -3.5990    -2.5630     1.5630 o          1 GY6      -0.586100
     31 O34          2.1680     0.9980     1.1460 o          1 GY6      -0.551100
     32 Cl           3.8950     3.7310     0.6650 cl         1 GY6      -0.177500
     33 H15         -5.2120    -0.2050     1.3320 h1         1 GY6       0.054200
     34 H16         -5.5280    -1.2340    -0.0850 h1         1 GY6       0.054200
     35 H18         -4.6480     1.7040    -0.1950 hc         1 GY6       0.050700
     36 H19         -4.9590     0.6880    -1.5940 hc         1 GY6       0.050700
     37 H23          2.9330    -0.0150    -4.2830 hc         1 GY6       0.063200
     38 H22          2.0790     1.3530    -3.5600 hc         1 GY6       0.063200
     39 H26          0.4710    -0.5620    -3.3690 hc         1 GY6       0.065700
     40 H25          1.7490    -1.6270    -2.7720 hc         1 GY6       0.065700
     41 H28          0.6080     0.8990    -1.3750 h1         1 GY6       0.096700
     42 H31          4.1910    -0.4520    -2.2200 h1         1 GY6       0.056700
     43 H32          4.1020     1.3280    -2.2050 h1         1 GY6       0.056700
     44 H36          8.2710     1.5910     1.1590 ha         1 GY6       0.128000
     45 H38          7.3900    -0.7160     0.8100 ha         1 GY6       0.139500
     46 H45          6.7090     3.5340     1.1080 ha         1 GY6       0.139500
     47 H47        -10.5300     2.1470    -0.3110 ha         1 GY6       0.112000
     48 H49         -8.9360     3.1010     1.3530 ha         1 GY6       0.112500
     49 H51         -6.5220     2.5170     1.2440 ha         1 GY6       0.112000
     50 H54         -7.2880     0.0170    -2.2000 ha         1 GY6       0.112000
     51 H56         -9.7010     0.6050    -2.0860 ha         1 GY6       0.112500
     52 H10          2.2510    -2.0790    -0.0960 hn         1 GY6       0.341500
     53 H20         -2.8830    -0.1670    -0.3300 hn         1 GY6       0.337500
     54 H06         -0.3640    -4.4370     2.2010 ho         1 GY6       0.490000
     55 C33          2.9960     0.8160     0.2640 c          1 GY6       0.622700
     56 Cl2          4.7620    -1.7260     0.3570 cl         1 GY6      -0.177500
@<TRIPOS>BOND
     1     1    10 1   
     2     1    24 2   
     3     1    25 1   
     4     2     3 2   
     5     2     5 1   
     6     2    24 1   
     7     3     4 1   
     8     3    28 1   
     9     4    25 1   
    10     4    29 2   
    11     5    26 1   
    12     5    30 2   
    13     6     7 1   
    14     6    26 1   
    15     6    33 1   
    16     6    34 1   
    17     7    21 1   
    18     7    35 1   
    19     7    36 1   
    20     8     9 1   
    21     8    11 1   
    22     8    37 1   
    23     8    38 1   
    24     9    10 1   
    25     9    39 1   
    26     9    40 1   
    27    10    27 1   
    28    10    41 1   
    29    11    27 1   
    30    11    42 1   
    31    11    43 1   
    32    12    13 ar  
    33    12    17 ar  
    34    12    44 1   
    35    13    14 ar  
    36    13    45 1   
    37    14    15 ar  
    38    14    56 1   
    39    15    16 ar  
    40    15    55 1   
    41    16    17 ar  
    42    16    32 1   
    43    17    46 1   
    44    18    19 ar  
    45    18    23 ar  
    46    18    47 1   
    47    19    20 ar  
    48    19    48 1   
    49    20    21 ar  
    50    20    49 1   
    51    21    22 ar  
    52    22    23 ar  
    53    22    50 1   
    54    23    51 1   
    55    25    52 1   
    56    26    53 1   
    57    27    55 1   
    58    28    54 1   
    59    31    55 2   
@<TRIPOS>SUBSTRUCTURE
     1 GY6         1 TEMP              0 ****  ****    0 ROOT
