@<TRIPOS>MOLECULE
GY6
   56    59     1     0     0
SMALL
bcc


@<TRIPOS>ATOM
      1 C01          0.4820    -1.0860    -0.4870 cc         1 GY6       0.474900
      2 C03         -1.3700    -1.9750     0.5340 cd         1 GY6       0.028400
      3 C04         -0.6680    -3.0360     1.0210 cc         1 GY6       0.049900
      4 C07          0.7560    -3.1430     0.7140 c          1 GY6       0.652700
      5 C11         -2.8360    -1.7910     0.7730 c          1 GY6       0.695300
      6 C14         -4.7480    -0.3520     0.2870 c3         1 GY6       0.111000
      7 C17         -5.0220     0.9280    -0.4950 c3         1 GY6      -0.049100
      8 C21          2.4780     0.2440    -3.3250 c5         1 GY6      -0.096400
      9 C24          1.2590    -0.5210    -2.8250 c5         1 GY6      -0.087400
     10 C27          1.1300    -0.0570    -1.3670 c5         1 GY6       0.074400
     11 C30          3.4250     0.2140    -2.1330 c5         1 GY6       0.106000
     12 C35          6.8680     1.7010     1.0800 ca         1 GY6      -0.098000
     13 C37          6.4710     0.3760     1.1750 ca         1 GY6      -0.120500
     14 C39          5.1580     0.0490     0.8830 ca         1 GY6       0.056400
     15 C41          4.2340     1.0110     0.4980 ca         1 GY6      -0.137600
     16 C42          4.6650     2.3280     0.4100 ca         1 GY6       0.056400
     17 C44          5.9720     2.6870     0.6940 ca         1 GY6      -0.120500
     18 C46         -9.2030     1.9190    -0.2690 ca         1 GY6      -0.127000
     19 C48         -8.3140     2.4180     0.6750 ca         1 GY6      -0.127000
     20 C50         -6.9630     2.1080     0.5920 ca         1 GY6      -0.122000
     21 C52         -6.4770     1.2980    -0.4310 ca         1 GY6      -0.081300
     22 C53         -7.3780     0.8030    -1.3720 ca         1 GY6      -0.122000
     23 C55         -8.7300     1.1110    -1.2940 ca         1 GY6      -0.127000
     24 N02         -0.7660    -1.0000    -0.2160 nd         1 GY6      -0.616300
     25 N09          1.2390    -2.1290    -0.0620 ns         1 GY6      -0.449400
     26 N13         -3.3470    -0.6960     0.1990 ns         1 GY6      -0.566900
     27 N29          2.5070     0.2360    -0.9900 n          1 GY6      -0.489800
     28 O05         -1.1710    -4.0100     1.7710 oh         1 GY6      -0.431100
     29 O08          1.4440    -4.0680     1.1170 o          1 GY6      -0.632500
     30 O12         -3.5000    -2.5810     1.4300 o          1 GY6      -0.586100
     31 O34          1.9660     0.7470     1.1360 o          1 GY6      -0.551100
     32 CL           3.5400     3.5350    -0.1070 cl         1 GY6      -0.085900
     33 H15         -5.0400    -0.2170     1.3320 h1         1 GY6       0.054200
     34 H16         -5.3600    -1.1670    -0.1110 h1         1 GY6       0.054200
     35 H18         -4.4120     1.7380    -0.0880 hc         1 GY6       0.050700
     36 H19         -4.7180     0.7880    -1.5360 hc         1 GY6       0.050700
     37 H23          2.9220    -0.2010    -4.2130 hc         1 GY6       0.063200
     38 H22          2.2070     1.2750    -3.5590 hc         1 GY6       0.063200
     39 H26          0.3510    -0.3090    -3.3870 hc         1 GY6       0.065700
     40 H25          1.4400    -1.5970    -2.8760 hc         1 GY6       0.065700
     41 H28          0.5150     0.8440    -1.3080 h1         1 GY6       0.096700
     42 H31          4.0290    -0.6960    -2.1220 h1         1 GY6       0.056700
     43 H32          4.0990     1.0680    -2.1170 h1         1 GY6       0.056700
     44 H36          7.8910     1.9690     1.3070 ha         1 GY6       0.146000
     45 H38          7.1740    -0.3900     1.4710 ha         1 GY6       0.157500
     46 H45          6.2850     3.7180     0.6160 ha         1 GY6       0.157500
     47 H47        -10.2550     2.1630    -0.2080 ha         1 GY6       0.130000
     48 H49         -8.6720     3.0520     1.4760 ha         1 GY6       0.130500
     49 H51         -6.2760     2.5080     1.3300 ha         1 GY6       0.130000
     50 H54         -7.0170     0.1770    -2.1800 ha         1 GY6       0.130000
     51 H56         -9.4140     0.7200    -2.0380 ha         1 GY6       0.130500
     52 H10          2.2250    -2.1600    -0.2970 hn         1 GY6       0.341500
     53 H20         -2.7210    -0.1050    -0.3280 hn         1 GY6       0.337500
     54 H06         -0.4550    -4.6330     1.9770 ho         1 GY6       0.451000
     55 C33          2.7960     0.6600     0.2480 c          1 GY6       0.689700
     56 CL2          4.6570    -1.6050     0.9910 cl         1 GY6      -0.085900
@<TRIPOS>BOND
     1     1    10 1   
     2     1    24 2   
     3     1    25 1   
     4     2     3 2   
     5     2     5 1   
     6     2    24 1   
     7     3     4 1   
     8     3    28 1   
     9     4    25 1   
    10     4    29 2   
    11     5    26 1   
    12     5    30 2   
    13     6     7 1   
    14     6    26 1   
    15     6    33 1   
    16     6    34 1   
    17     7    21 1   
    18     7    35 1   
    19     7    36 1   
    20     8     9 1   
    21     8    11 1   
    22     8    37 1   
    23     8    38 1   
    24     9    10 1   
    25     9    39 1   
    26     9    40 1   
    27    10    27 1   
    28    10    41 1   
    29    11    27 1   
    30    11    42 1   
    31    11    43 1   
    32    12    13 ar  
    33    12    17 ar  
    34    12    44 1   
    35    13    14 ar  
    36    13    45 1   
    37    14    15 ar  
    38    14    56 1   
    39    15    16 ar  
    40    15    55 1   
    41    16    17 ar  
    42    16    32 1   
    43    17    46 1   
    44    18    19 ar  
    45    18    23 ar  
    46    18    47 1   
    47    19    20 ar  
    48    19    48 1   
    49    20    21 ar  
    50    20    49 1   
    51    21    22 ar  
    52    22    23 ar  
    53    22    50 1   
    54    23    51 1   
    55    25    52 1   
    56    26    53 1   
    57    27    55 1   
    58    28    54 1   
    59    31    55 2   
@<TRIPOS>SUBSTRUCTURE
     1 GY6         1 TEMP              0 ****  ****    0 ROOT
