@<TRIPOS>MOLECULE
GY7
   56    59     1     0     0
SMALL
bcc


@<TRIPOS>ATOM
      1 C1           5.4540    -0.2540    -0.7340 ca         1 GY7       0.195900
      2 C10         -6.2630    -1.2380     0.6640 ca         1 GY7      -0.081300
      3 C11         -6.8500    -2.0310    -0.3200 ca         1 GY7      -0.122000
      4 C12         -8.2150    -2.2850    -0.3080 ca         1 GY7      -0.126500
      5 C13         -9.0160    -1.7470     0.6910 ca         1 GY7      -0.127000
      6 C14         -8.4420    -0.9540     1.6770 ca         1 GY7      -0.126500
      7 C15         -7.0760    -0.7030     1.6600 ca         1 GY7      -0.122000
      8 C16         -0.3780     2.6930    -1.4630 cc         1 GY7       0.048900
      9 C17          1.0540     2.8010    -1.2000 c          1 GY7       0.650700
     10 C18          1.5000     0.5980     2.6430 c5         1 GY7      -0.086400
     11 C19          2.7270    -0.0840     3.2360 c5         1 GY7      -0.097400
     12 C2           4.5310    -1.2540    -0.4750 ca         1 GY7      -0.242600
     13 C20          3.6910    -0.1400     2.0590 c5         1 GY7       0.105000
     14 C21          4.9910    -2.5590    -0.5360 ca         1 GY7       0.195900
     15 C22          6.3040    -2.8740    -0.8210 ca         1 GY7      -0.189500
     16 C23          7.1900    -1.8350    -1.0700 ca         1 GY7      -0.060000
     17 C24          6.7750    -0.5120    -1.0320 ca         1 GY7      -0.189500
     18 C3           3.0840    -0.9520    -0.2370 c          1 GY7       0.695700
     19 C4           1.4070    -0.0160     1.2390 c5         1 GY7       0.072400
     20 C5           0.7640     0.9090     0.2460 cc         1 GY7       0.473900
     21 C6          -1.0910     1.7160    -0.8370 cd         1 GY7       0.027400
     22 C7          -2.5680     1.5480    -1.0170 c          1 GY7       0.695300
     23 C8          -4.5080     0.2580    -0.2890 c3         1 GY7       0.111000
     24 C9          -4.7930    -0.9300     0.6250 c3         1 GY7      -0.049100
     25 F1           5.0240     1.0160    -0.6980 f          1 GY7      -0.129400
     26 F2           4.1200    -3.5400    -0.2820 f          1 GY7      -0.129400
     27 N1           2.7940    -0.3220     0.9140 n          1 GY7      -0.490800
     28 N2          -0.4920     0.8230     0.0120 nd         1 GY7      -0.617300
     29 N3          -3.0940     0.5550    -0.2910 ns         1 GY7      -0.566900
     30 N4           1.5360     1.8700    -0.3250 ns         1 GY7      -0.450400
     31 O1           2.2360    -1.2430    -1.0620 o          1 GY7      -0.552100
     32 O2          -3.2250     2.2660    -1.7570 o          1 GY7      -0.585100
     33 O4           1.7520     3.6570    -1.7220 o          1 GY7      -0.630500
     34 H1          -6.2320    -2.4600    -1.1000 ha         1 GY7       0.129500
     35 H2          -8.6540    -2.9060    -1.0790 ha         1 GY7       0.130500
     36 H3         -10.0790    -1.9470     0.7040 ha         1 GY7       0.130000
     37 H4          -9.0570    -0.5320     2.4610 ha         1 GY7       0.130500
     38 H5          -6.6340    -0.0870     2.4360 ha         1 GY7       0.129500
     39 H6           0.5870     0.4290     3.2100 hc         1 GY7       0.065700
     40 H7           1.6620     1.6770     2.5800 hc         1 GY7       0.065700
     41 H8           3.1440     0.4600     4.0810 hc         1 GY7       0.063200
     42 H9           2.4790    -1.0930     3.5680 hc         1 GY7       0.063200
     43 H10          4.2520     0.7930     1.9690 h1         1 GY7       0.056700
     44 H11          4.4030    -0.9590     2.1360 h1         1 GY7       0.056700
     45 H12          6.6250    -3.9060    -0.8490 ha         1 GY7       0.162000
     46 H13          8.2220    -2.0620    -1.2990 ha         1 GY7       0.146000
     47 H14          7.4610     0.3000    -1.2310 ha         1 GY7       0.162000
     48 H15          0.8040    -0.9280     1.2590 h1         1 GY7       0.098700
     49 H16         -4.8470     0.0340    -1.3040 h1         1 GY7       0.053700
     50 H17         -5.0770     1.1280     0.0510 h1         1 GY7       0.053700
     51 H18         -4.4340    -0.7060     1.6320 hc         1 GY7       0.050700
     52 H19         -4.2350    -1.8010     0.2700 hc         1 GY7       0.050700
     53 H20         -2.4720     0.0300     0.3050 hn         1 GY7       0.337500
     54 H21          2.5270     1.9080    -0.1140 hn         1 GY7       0.344500
     55 H22         -0.1510     4.1650    -2.5960 ho         1 GY7       0.451000
     56 O3          -0.8750     3.5850    -2.3110 oh         1 GY7      -0.430100
@<TRIPOS>BOND
     1     1    12 ar  
     2     1    17 ar  
     3     1    25 1   
     4     2     3 ar  
     5     2     7 ar  
     6     2    24 1   
     7     3     4 ar  
     8     3    34 1   
     9     4     5 ar  
    10     4    35 1   
    11     5     6 ar  
    12     5    36 1   
    13     6     7 ar  
    14     6    37 1   
    15     7    38 1   
    16     8     9 1   
    17     8    21 2   
    18     8    56 1   
    19     9    30 1   
    20     9    33 2   
    21    10    11 1   
    22    10    19 1   
    23    10    39 1   
    24    10    40 1   
    25    11    13 1   
    26    11    41 1   
    27    11    42 1   
    28    12    14 ar  
    29    12    18 1   
    30    13    27 1   
    31    13    43 1   
    32    13    44 1   
    33    14    15 ar  
    34    14    26 1   
    35    15    16 ar  
    36    15    45 1   
    37    16    17 ar  
    38    16    46 1   
    39    17    47 1   
    40    18    27 1   
    41    18    31 2   
    42    19    20 1   
    43    19    27 1   
    44    19    48 1   
    45    20    28 2   
    46    20    30 1   
    47    21    22 1   
    48    21    28 1   
    49    22    29 1   
    50    22    32 2   
    51    23    24 1   
    52    23    29 1   
    53    23    49 1   
    54    23    50 1   
    55    24    51 1   
    56    24    52 1   
    57    29    53 1   
    58    30    54 1   
    59    55    56 1   
@<TRIPOS>SUBSTRUCTURE
     1 GY7         1 TEMP              0 ****  ****    0 ROOT
