@<TRIPOS>MOLECULE
GY7
   56    59     1     0     0
SMALL
No Charge or Current Charge


@<TRIPOS>ATOM
      1 C1           5.5930    -0.1640    -0.5180 ca         1 GY7       0.231000
      2 C10         -6.4950    -1.1700     0.7070 ca         1 GY7      -0.081300
      3 C11         -7.0060    -2.1450    -0.1710 ca         1 GY7      -0.104000
      4 C12         -8.3780    -2.4490    -0.1730 ca         1 GY7      -0.108500
      5 C13         -9.2480    -1.7790     0.7040 ca         1 GY7      -0.109000
      6 C14         -8.7450    -0.8030     1.5810 ca         1 GY7      -0.108500
      7 C15         -7.3720    -0.4990     1.5820 ca         1 GY7      -0.104000
      8 C16         -0.3770     2.5840    -1.5120 cc         1 GY7       0.048900
      9 C17          1.0810     2.6940    -1.3080 c          1 GY7       0.508200
     10 C18          1.6870     0.6930     2.6410 c5         1 GY7      -0.086400
     11 C19          2.7640    -0.2010     3.3000 c5         1 GY7      -0.097400
     12 C2           4.7060    -1.2570    -0.5200 ca         1 GY7      -0.242600
     13 C20          3.7840    -0.3740     2.1460 c5         1 GY7       0.105000
     14 C21          5.2000    -2.5330    -0.8420 ca         1 GY7       0.231000
     15 C22          6.5620    -2.7220    -1.1240 ca         1 GY7      -0.171500
     16 C23          7.4460    -1.6300    -1.1010 ca         1 GY7      -0.042000
     17 C24          6.9550    -0.3490    -0.8030 ca         1 GY7      -0.171500
     18 C3           3.2540    -1.0690    -0.2310 c          1 GY7       0.628700
     19 C4           1.4960    -0.0190     1.2720 c5         1 GY7       0.072400
     20 C5           0.8060     0.9030     0.2740 cc         1 GY7       0.473900
     21 C6          -1.1660     1.6590    -0.8210 cd         1 GY7       0.027400
     22 C7          -2.6600     1.5890    -1.0640 c          1 GY7       0.628300
     23 C8          -4.6770     0.2960    -0.2860 c3         1 GY7       0.111000
     24 C9          -5.0100    -0.8350     0.7040 c3         1 GY7      -0.049100
     25 F1           5.1390     1.0890    -0.2920 f          1 GY7      -0.164500
     26 F2           4.3760    -3.6040    -0.8520 f          1 GY7      -0.164500
     27 N1           2.9030    -0.3910     0.9540 n          1 GY7      -0.423800
     28 N2          -0.5160     0.7970     0.1070 nd         1 GY7      -0.617300
     29 N3          -3.2500     0.6160    -0.2890 ns         1 GY7      -0.499900
     30 N4           1.5570     1.8220    -0.4020 ns         1 GY7      -0.383400
     31 O1           2.4010    -1.4130    -1.0360 o          1 GY7      -0.552100
     32 O2          -3.3190     2.2780    -1.8340 o          1 GY7      -0.585100
     33 O4           1.8070     3.4900    -1.8890 o          1 GY7      -0.555000
     34 H1          -6.3400    -2.6680    -0.8550 ha         1 GY7       0.111500
     35 H2          -8.7670    -3.2040    -0.8530 ha         1 GY7       0.112500
     36 H3         -10.3110    -2.0140     0.7030 ha         1 GY7       0.112000
     37 H4          -9.4180    -0.2820     2.2590 ha         1 GY7       0.112500
     38 H5          -6.9910     0.2590     2.2630 ha         1 GY7       0.111500
     39 H6           0.7590     0.7390     3.2220 hc         1 GY7       0.065700
     40 H7           2.0490     1.7220     2.5200 hc         1 GY7       0.065700
     41 H8           3.2120     0.2550     4.1900 hc         1 GY7       0.063200
     42 H9           2.3440    -1.1680     3.6030 hc         1 GY7       0.063200
     43 H10          4.4790     0.4750     2.1060 h1         1 GY7       0.056700
     44 H11          4.3680    -1.2980     2.2520 h1         1 GY7       0.056700
     45 H12          6.9310    -3.7170    -1.3580 ha         1 GY7       0.144000
     46 H13          8.5020    -1.7750    -1.3230 ha         1 GY7       0.128000
     47 H14          7.6270     0.5060    -0.8010 ha         1 GY7       0.144000
     48 H15          0.8920    -0.9290     1.3920 h1         1 GY7       0.098700
     49 H16         -4.9750    -0.0050    -1.3000 h1         1 GY7       0.053700
     50 H17         -5.2430     1.1970    -0.0150 h1         1 GY7       0.053700
     51 H18         -4.6880    -0.5380     1.7090 hc         1 GY7       0.050700
     52 H19         -4.4240    -1.7250     0.4420 hc         1 GY7       0.050700
     53 H20         -2.6170     0.1030     0.3140 hn         1 GY7       0.337500
     54 H21          2.5510     1.8560    -0.2280 hn         1 GY7       0.344500
     55 H22         -0.0580     3.9900    -2.7420 ho         1 GY7       0.490000
     56 O3          -0.8400     3.4760    -2.4320 oh         1 GY7      -0.469100
@<TRIPOS>BOND
     1     1    12 ar  
     2     1    17 ar  
     3     1    25 1   
     4     2     3 ar  
     5     2     7 ar  
     6     2    24 1   
     7     3     4 ar  
     8     3    34 1   
     9     4     5 ar  
    10     4    35 1   
    11     5     6 ar  
    12     5    36 1   
    13     6     7 ar  
    14     6    37 1   
    15     7    38 1   
    16     8     9 1   
    17     8    21 2   
    18     8    56 1   
    19     9    30 1   
    20     9    33 2   
    21    10    11 1   
    22    10    19 1   
    23    10    39 1   
    24    10    40 1   
    25    11    13 1   
    26    11    41 1   
    27    11    42 1   
    28    12    14 ar  
    29    12    18 1   
    30    13    27 1   
    31    13    43 1   
    32    13    44 1   
    33    14    15 ar  
    34    14    26 1   
    35    15    16 ar  
    36    15    45 1   
    37    16    17 ar  
    38    16    46 1   
    39    17    47 1   
    40    18    27 1   
    41    18    31 2   
    42    19    20 1   
    43    19    27 1   
    44    19    48 1   
    45    20    28 2   
    46    20    30 1   
    47    21    22 1   
    48    21    28 1   
    49    22    29 1   
    50    22    32 2   
    51    23    24 1   
    52    23    29 1   
    53    23    49 1   
    54    23    50 1   
    55    24    51 1   
    56    24    52 1   
    57    29    53 1   
    58    30    54 1   
    59    55    56 1   
@<TRIPOS>SUBSTRUCTURE
     1 GY7         1 TEMP              0 ****  ****    0 ROOT
