@<TRIPOS>MOLECULE
GY8
   56    60     1     0     0
SMALL
bcc


@<TRIPOS>ATOM
      1 C1          -5.1940    -0.0900    -0.8000 ca         1 GY8      -0.071900
      2 C10          6.5620     0.6830     0.5780 ca         1 GY8      -0.088300
      3 C11          6.0980     1.7300    -0.2170 ca         1 GY8      -0.088300
      4 C12          6.8820     2.8530    -0.4280 ca         1 GY8      -0.113000
      5 C13          8.1390     2.9210     0.1650 ca         1 GY8      -0.129500
      6 C14          8.6020     1.8760     0.9570 ca         1 GY8      -0.129500
      7 C15          7.8140     0.7490     1.1680 ca         1 GY8      -0.113000
      8 C16          4.7190     1.4300    -0.7270 c5         1 GY8      -0.048600
      9 C17          0.6620    -3.0410    -0.9620 cc         1 GY8       0.053900
     10 C18         -0.7390    -3.1990    -0.5760 c          1 GY8       0.651700
     11 C19         -1.2530    -0.5020     2.8830 c5         1 GY8      -0.087400
     12 C2          -4.2950     0.8980    -0.4340 ca         1 GY8      -0.101600
     13 C20         -2.4800     0.2490     3.3840 c5         1 GY8      -0.095400
     14 C21         -3.4390     0.1860     2.2040 c5         1 GY8       0.104000
     15 C22         -4.7790     2.1950    -0.3750 ca         1 GY8      -0.071900
     16 C23         -6.1070     2.4530    -0.6800 ca         1 GY8       0.419200
     17 C24         -6.5090     0.2430    -1.0920 ca         1 GY8       0.419200
     18 C3          -2.8450     0.5950    -0.1910 c          1 GY8       0.686700
     19 C4          -1.1470    -0.0600     1.4170 c5         1 GY8       0.074400
     20 C5          -0.4970    -1.0890     0.5390 cc         1 GY8       0.470900
     21 C6           1.3370    -1.9290    -0.5550 cd         1 GY8       0.024400
     22 C7           2.7730    -1.6800    -0.9000 c          1 GY8       0.700300
     23 C8           4.6150    -0.0930    -0.5380 c5         1 GY8       0.108700
     24 C9           5.5280    -0.4020     0.6670 c5         1 GY8      -0.048600
     25 N1          -2.5330     0.2070     1.0510 n          1 GY8      -0.488800
     26 N2           0.7300    -0.9600     0.1980 nd         1 GY8      -0.611300
     27 N3           3.2560    -0.5390    -0.3860 ns         1 GY8      -0.556900
     28 N4          -1.2300    -2.1760     0.1830 ns         1 GY8      -0.450400
     29 N5          -6.9440     1.4910    -1.0320 nb         1 GY8      -0.640000
     30 O1          -2.0390     0.6880    -1.0990 o          1 GY8      -0.545100
     31 O2           3.4200    -2.4540    -1.5900 o          1 GY8      -0.581100
     32 O4          -1.4020    -4.1690    -0.9070 o          1 GY8      -0.630500
     33 CL1         -4.6890    -1.7360    -0.8880 cl         1 GY8      -0.066900
     34 CL2         -3.7360     3.4750     0.1080 cl         1 GY8      -0.066900
     35 H1           6.5270     3.6690    -1.0480 ha         1 GY8       0.132000
     36 H2           8.7650     3.7900     0.0030 ha         1 GY8       0.129000
     37 H3           9.5840     1.9390     1.4080 ha         1 GY8       0.129000
     38 H4           8.1800    -0.0650     1.7830 ha         1 GY8       0.132000
     39 H5           3.9680     1.9450    -0.1170 hc         1 GY8       0.059200
     40 H6           4.5540     1.7340    -1.7620 hc         1 GY8       0.059200
     41 H7          -0.3430    -0.2640     3.4300 hc         1 GY8       0.066200
     42 H8          -1.4130    -1.5800     2.9520 hc         1 GY8       0.066200
     43 H9          -2.9070    -0.1910     4.2830 hc         1 GY8       0.064700
     44 H10         -2.2250     1.2880     3.6010 hc         1 GY8       0.064700
     45 H11         -4.0280    -0.7350     2.2100 h1         1 GY8       0.057200
     46 H12         -4.1270     1.0290     2.1840 h1         1 GY8       0.057200
     47 H13         -6.4920     3.4640    -0.6340 h4         1 GY8       0.045600
     48 H14         -7.2180    -0.5230    -1.3800 h4         1 GY8       0.045600
     49 H15         -0.5460     0.8500     1.3350 h1         1 GY8       0.098700
     50 H16          5.0330    -0.5820    -1.4190 h1         1 GY8       0.086700
     51 H17          5.9400    -1.4110     0.6300 hc         1 GY8       0.059200
     52 H18          4.9610    -0.3180     1.6010 hc         1 GY8       0.059200
     53 H19          2.6350    -0.0010     0.2010 hn         1 GY8       0.334500
     54 H20         -2.1990    -2.2450     0.4720 hn         1 GY8       0.339500
     55 H21          0.4730    -4.6820    -1.8450 ho         1 GY8       0.452000
     56 O3           1.1690    -4.0220    -1.6960 oh         1 GY8      -0.429100
@<TRIPOS>BOND
     1     1    12 ar  
     2     1    17 ar  
     3     1    33 1   
     4     2     3 ar  
     5     2     7 ar  
     6     2    24 1   
     7     3     4 ar  
     8     3     8 1   
     9     4     5 ar  
    10     4    35 1   
    11     5     6 ar  
    12     5    36 1   
    13     6     7 ar  
    14     6    37 1   
    15     7    38 1   
    16     8    23 1   
    17     8    39 1   
    18     8    40 1   
    19     9    10 1   
    20     9    21 2   
    21     9    56 1   
    22    10    28 1   
    23    10    32 2   
    24    11    13 1   
    25    11    19 1   
    26    11    41 1   
    27    11    42 1   
    28    12    15 ar  
    29    12    18 1   
    30    13    14 1   
    31    13    43 1   
    32    13    44 1   
    33    14    25 1   
    34    14    45 1   
    35    14    46 1   
    36    15    16 ar  
    37    15    34 1   
    38    16    29 ar  
    39    16    47 1   
    40    17    29 ar  
    41    17    48 1   
    42    18    25 1   
    43    18    30 2   
    44    19    20 1   
    45    19    25 1   
    46    19    49 1   
    47    20    26 2   
    48    20    28 1   
    49    21    22 1   
    50    21    26 1   
    51    22    27 1   
    52    22    31 2   
    53    23    24 1   
    54    23    27 1   
    55    23    50 1   
    56    24    51 1   
    57    24    52 1   
    58    27    53 1   
    59    28    54 1   
    60    55    56 1   
@<TRIPOS>SUBSTRUCTURE
     1 GY8         1 TEMP              0 ****  ****    0 ROOT
