@<TRIPOS>MOLECULE
GY8
   56    60     1     0     0
SMALL
No Charge or Current Charge


@<TRIPOS>ATOM
      1 C1          -5.4440    -0.4320    -0.2250 ca         1 GY8       0.085000
      2 C10          6.6890     0.4150     0.5000 ca         1 GY8      -0.088300
      3 C11          6.2960     1.6400    -0.0030 ca         1 GY8      -0.088300
      4 C12          7.0940     2.7820     0.1700 ca         1 GY8      -0.095000
      5 C13          8.3130     2.6620     0.8670 ca         1 GY8      -0.111500
      6 C14          8.7150     1.4110     1.3800 ca         1 GY8      -0.111500
      7 C15          7.8990     0.2770     1.1990 ca         1 GY8      -0.095000
      8 C16          4.9650     1.5720    -0.7070 c5         1 GY8      -0.048600
      9 C17          0.7470    -2.8110    -1.0450 cc         1 GY8       0.053900
     10 C18         -0.6620    -3.0150    -0.6530 c          1 GY8       0.509200
     11 C19         -1.2040    -0.1970     2.7560 c5         1 GY8      -0.087400
     12 C2          -4.6510     0.7200    -0.4290 ca         1 GY8      -0.101600
     13 C20         -2.3200     0.7260     3.3000 c5         1 GY8      -0.095400
     14 C21         -3.4320     0.5440     2.2360 c5         1 GY8       0.104000
     15 C22         -5.3090     1.9110    -0.8050 ca         1 GY8       0.085000
     16 C23         -6.7130     1.9080    -0.9400 ca         1 GY8       0.353900
     17 C24         -6.8430    -0.3400    -0.3870 ca         1 GY8       0.353900
     18 C3          -3.1600     0.6800    -0.2810 c          1 GY8       0.619700
     19 C4          -1.1860     0.1950     1.2500 c5         1 GY8       0.074400
     20 C5          -0.4780    -0.8720     0.4230 cc         1 GY8       0.470900
     21 C6           1.4710    -1.6690    -0.6860 cd         1 GY8       0.024400
     22 C7           2.9170    -1.5090    -1.1090 c          1 GY8       0.633300
     23 C8           4.8410     0.0140    -0.9310 c5         1 GY8       0.108700
     24 C9           5.6870    -0.6730     0.2150 c5         1 GY8      -0.048600
     25 N1          -2.6430     0.3700     0.9940 n          1 GY8      -0.421800
     26 N2           0.8010    -0.6770     0.0830 nd         1 GY8      -0.611300
     27 N3           3.4370    -0.3140    -0.6510 ns         1 GY8      -0.489900
     28 N4          -1.1630    -2.0000     0.0730 ns         1 GY8      -0.383400
     29 N5          -7.4800     0.8070    -0.7350 nb         1 GY8      -0.640000
     30 O1          -2.4210     0.8360    -1.2430 o          1 GY8      -0.545100
     31 O2           3.5810    -2.3020    -1.7690 o          1 GY8      -0.581100
     32 O4          -1.3290    -3.9980    -0.9440 o          1 GY8      -0.555000
     33 Cl1         -4.7170    -1.9960     0.1630 cl         1 GY8      -0.158500
     34 Cl2         -4.4120     3.4100    -1.0650 cl         1 GY8      -0.158500
     35 H1           6.7770     3.7440    -0.2260 ha         1 GY8       0.114000
     36 H2           8.9440     3.5360     1.0090 ha         1 GY8       0.111000
     37 H3           9.6560     1.3220     1.9190 ha         1 GY8       0.111000
     38 H4           8.2020    -0.6900     1.5950 ha         1 GY8       0.114000
     39 H5           4.1710     1.9820    -0.0710 hc         1 GY8       0.059200
     40 H6           4.9510     2.1240    -1.6530 hc         1 GY8       0.059200
     41 H7          -0.2370    -0.0260     3.2430 hc         1 GY8       0.066200
     42 H8          -1.4610    -1.2530     2.9000 hc         1 GY8       0.066200
     43 H9          -2.6540     0.4460     4.3060 hc         1 GY8       0.064700
     44 H10         -1.9850     1.7690     3.3450 hc         1 GY8       0.064700
     45 H11         -4.0360    -0.3490     2.4430 h1         1 GY8       0.057200
     46 H12         -4.1010     1.4140     2.1940 h1         1 GY8       0.057200
     47 H13         -7.2420     2.8190    -1.2170 h4         1 GY8       0.045600
     48 H14         -7.4720    -1.2170    -0.2420 h4         1 GY8       0.045600
     49 H15         -0.6700     1.1550     1.1090 h1         1 GY8       0.098700
     50 H16          5.1900    -0.2780    -1.9330 h1         1 GY8       0.086700
     51 H17          6.1500    -1.6070    -0.1220 hc         1 GY8       0.059200
     52 H18          5.0940    -0.8980     1.1090 hc         1 GY8       0.059200
     53 H19          2.8000     0.2640    -0.1140 hn         1 GY8       0.334500
     54 H20         -2.1260    -2.0910     0.3630 hn         1 GY8       0.339500
     55 H21          0.5000    -4.5000    -1.8670 ho         1 GY8       0.491000
     56 O3           1.2350    -3.8500    -1.7780 oh         1 GY8      -0.468100
@<TRIPOS>BOND
     1     1    12 ar  
     2     1    17 ar  
     3     1    33 1   
     4     2     3 ar  
     5     2     7 ar  
     6     2    24 1   
     7     3     4 ar  
     8     3     8 1   
     9     4     5 ar  
    10     4    35 1   
    11     5     6 ar  
    12     5    36 1   
    13     6     7 ar  
    14     6    37 1   
    15     7    38 1   
    16     8    23 1   
    17     8    39 1   
    18     8    40 1   
    19     9    10 1   
    20     9    21 2   
    21     9    56 1   
    22    10    28 1   
    23    10    32 2   
    24    11    13 1   
    25    11    19 1   
    26    11    41 1   
    27    11    42 1   
    28    12    15 ar  
    29    12    18 1   
    30    13    14 1   
    31    13    43 1   
    32    13    44 1   
    33    14    25 1   
    34    14    45 1   
    35    14    46 1   
    36    15    16 ar  
    37    15    34 1   
    38    16    29 ar  
    39    16    47 1   
    40    17    29 ar  
    41    17    48 1   
    42    18    25 1   
    43    18    30 2   
    44    19    20 1   
    45    19    25 1   
    46    19    49 1   
    47    20    26 2   
    48    20    28 1   
    49    21    22 1   
    50    21    26 1   
    51    22    27 1   
    52    22    31 2   
    53    23    24 1   
    54    23    27 1   
    55    23    50 1   
    56    24    51 1   
    57    24    52 1   
    58    27    53 1   
    59    28    54 1   
    60    55    56 1   
@<TRIPOS>SUBSTRUCTURE
     1 GY8         1 TEMP              0 ****  ****    0 ROOT
