@<TRIPOS>MOLECULE
GY9
   61    64     1     0     0
SMALL
abcg2


@<TRIPOS>ATOM
      1 C1           0.5340     2.9420    -0.2530 cc         1 GY9       0.463900
      2 C10          2.9750     1.3650     0.1610 c          1 GY9       0.617100
      3 C11          3.9280     0.2340    -0.1860 c3         1 GY9       0.083600
      4 C12         -3.6990    -0.4110    -2.7260 c3         1 GY9       0.107000
      5 C13         -4.3950    -1.4380    -1.8580 c3         1 GY9       0.136600
      6 C14          6.1420    -4.1610     0.7540 ca         1 GY9      -0.139000
      7 C15          5.2810    -3.8890     1.8090 ca         1 GY9      -0.069000
      8 C16          4.5350    -2.7250     1.8060 ca         1 GY9       0.086000
      9 C17          4.6270    -1.8060     0.7560 ca         1 GY9       0.148100
     10 C18          5.4940    -2.0890    -0.2960 ca         1 GY9      -0.196000
     11 C19          6.2430    -3.2590    -0.2920 ca         1 GY9      -0.072000
     12 C2          -1.2940     1.6450    -0.6520 cd         1 GY9       0.054400
     13 C20         -7.6750    -2.7010     1.7440 ca         1 GY9      -0.149000
     14 C21         -7.8510    -1.3510     1.4560 ca         1 GY9      -0.074000
     15 C22         -7.0810    -0.7300     0.4890 ca         1 GY9      -0.172000
     16 C23         -6.1150    -1.4560    -0.2130 ca         1 GY9       0.147100
     17 C24         -5.9350    -2.8080     0.0680 ca         1 GY9      -0.172000
     18 C25         -6.7170    -3.4170     1.0450 ca         1 GY9      -0.074000
     19 C3          -2.0090     2.2340     0.3450 cc         1 GY9      -0.004100
     20 C4          -1.3960     3.2890     1.1320 c          1 GY9       0.521200
     21 C5          -1.8040     0.4980    -1.4770 c          1 GY9       0.634300
     22 C6           3.3460     3.8040    -2.4850 c5         1 GY9      -0.092400
     23 C7           1.9760     4.1650    -1.9240 c5         1 GY9      -0.088400
     24 C8           1.9260     3.4140    -0.5850 c5         1 GY9       0.087400
     25 C9           3.5020     2.3440    -2.0850 c5         1 GY9       0.107000
     26 N1          -0.0140     2.0090    -0.9440 nd         1 GY9      -0.567300
     27 N2          -0.1140     3.5790     0.7530 ns         1 GY9      -0.377400
     28 N3          -3.0450     0.6270    -1.9630 ns         1 GY9      -0.489900
     29 N4           2.8300     2.2960    -0.7920 n          1 GY9      -0.412800
     30 O1          -3.2580     1.8840     0.6650 oh         1 GY9      -0.512100
     31 O2          -1.9750     3.8570     2.0480 o          1 GY9      -0.557000
     32 O3          -1.0820    -0.4600    -1.7000 o          1 GY9      -0.579100
     33 O4           3.8600    -0.7090     0.8490 os         1 GY9      -0.291100
     34 O5           2.3900     1.4230     1.2290 o          1 GY9      -0.563100
     35 O6          -5.4140    -0.7730    -1.1390 os         1 GY9      -0.352100
     36 H1           3.6480    -0.2070    -1.1510 h1         1 GY9       0.053700
     37 H2           4.9430     0.6360    -0.2940 h1         1 GY9       0.053700
     38 H3          -2.9680    -0.9230    -3.3500 h1         1 GY9       0.065700
     39 H4          -4.4160     0.0640    -3.3960 h1         1 GY9       0.065700
     40 H5          -4.8150    -2.2260    -2.4930 h1         1 GY9       0.048200
     41 H6          -3.6750    -1.9040    -1.1780 h1         1 GY9       0.048200
     42 H7           6.7250    -5.0720     0.7560 ha         1 GY9       0.119000
     43 H8           5.1870    -4.5810     2.6350 ha         1 GY9       0.130000
     44 H9           5.5950    -1.4060    -1.1290 ha         1 GY9       0.114000
     45 H10          6.9100    -3.4570    -1.1210 ha         1 GY9       0.114000
     46 H11         -8.2770    -3.1850     2.5010 ha         1 GY9       0.114000
     47 H12         -8.5950    -0.7740     1.9890 ha         1 GY9       0.111000
     48 H13         -7.2190     0.3210     0.2670 ha         1 GY9       0.119500
     49 H14         -5.2000    -3.4030    -0.4580 ha         1 GY9       0.119500
     50 H15         -6.5660    -4.4690     1.2540 ha         1 GY9       0.111000
     51 H16          3.4100     3.9450    -3.5630 hc         1 GY9       0.059700
     52 H17          4.1270     4.4070    -2.0170 hc         1 GY9       0.059700
     53 H18          1.8230     5.2340    -1.7910 hc         1 GY9       0.067200
     54 H19          1.1930     3.7890    -2.5860 hc         1 GY9       0.067200
     55 H20          2.2950     4.0500     0.2260 h1         1 GY9       0.067700
     56 H21          3.0110     1.6810    -2.8040 h1         1 GY9       0.054700
     57 H22          4.5470     2.0480    -2.0030 h1         1 GY9       0.054700
     58 H23          0.3710     4.2960     1.2810 hn         1 GY9       0.338500
     59 H24         -3.5940     1.4310    -1.7070 hn         1 GY9       0.331500
     60 H25         -3.5620     2.4450     1.3940 ho         1 GY9       0.497000
     61 CL1          3.4610    -2.3850     3.1190 cl         1 GY9      -0.173000
@<TRIPOS>BOND
     1     1    24 1   
     2     1    26 2   
     3     1    27 1   
     4     2     3 1   
     5     2    29 1   
     6     2    34 2   
     7     3    33 1   
     8     3    36 1   
     9     3    37 1   
    10     4     5 1   
    11     4    28 1   
    12     4    38 1   
    13     4    39 1   
    14     5    35 1   
    15     5    40 1   
    16     5    41 1   
    17     6     7 ar  
    18     6    11 ar  
    19     6    42 1   
    20     7     8 ar  
    21     7    43 1   
    22     8     9 ar  
    23     8    61 1   
    24     9    10 ar  
    25     9    33 1   
    26    10    11 ar  
    27    10    44 1   
    28    11    45 1   
    29    12    19 2   
    30    12    21 1   
    31    12    26 1   
    32    13    14 ar  
    33    13    18 ar  
    34    13    46 1   
    35    14    15 ar  
    36    14    47 1   
    37    15    16 ar  
    38    15    48 1   
    39    16    17 ar  
    40    16    35 1   
    41    17    18 ar  
    42    17    49 1   
    43    18    50 1   
    44    19    20 1   
    45    19    30 1   
    46    20    27 1   
    47    20    31 2   
    48    21    28 1   
    49    21    32 2   
    50    22    23 1   
    51    22    25 1   
    52    22    51 1   
    53    22    52 1   
    54    23    24 1   
    55    23    53 1   
    56    23    54 1   
    57    24    29 1   
    58    24    55 1   
    59    25    29 1   
    60    25    56 1   
    61    25    57 1   
    62    27    58 1   
    63    28    59 1   
    64    30    60 1   
@<TRIPOS>SUBSTRUCTURE
     1 GY9         1 TEMP              0 ****  ****    0 ROOT
