@<TRIPOS>MOLECULE
GY9
   61    64     1     0     0
SMALL
No Charge or Current Charge


@<TRIPOS>ATOM
      1 C1           0.4000     3.5610    -0.8280 cc         1 GY9       0.463900
      2 C10          2.4360     1.4170     0.2160 c          1 GY9       0.617100
      3 C11          3.1710     0.0550     0.1410 c3         1 GY9       0.083600
      4 C12         -4.6960     0.4610    -2.6810 c3         1 GY9       0.107000
      5 C13         -4.5130    -0.9630    -2.1060 c3         1 GY9       0.136600
      6 C14          4.2610    -4.7520     1.6260 ca         1 GY9      -0.139000
      7 C15          3.2800    -4.2630     2.5040 ca         1 GY9      -0.069000
      8 C16          2.7830    -2.9570     2.3500 ca         1 GY9       0.086000
      9 C17          3.2670    -2.1300     1.3120 ca         1 GY9       0.148100
     10 C18          4.2540    -2.6290     0.4310 ca         1 GY9      -0.196000
     11 C19          4.7470    -3.9370     0.5910 ca         1 GY9      -0.072000
     12 C2          -1.6760     2.5550    -1.4370 cd         1 GY9       0.054400
     13 C20         -4.4070    -4.2240     1.8660 ca         1 GY9      -0.149000
     14 C21         -4.7570    -2.9610     2.3700 ca         1 GY9      -0.074000
     15 C22         -4.8700    -1.8650     1.4960 ca         1 GY9      -0.172000
     16 C23         -4.6350    -2.0250     0.1210 ca         1 GY9       0.147100
     17 C24         -4.2840    -3.2970    -0.3830 ca         1 GY9      -0.172000
     18 C25         -4.1710    -4.3930     0.4910 ca         1 GY9      -0.074000
     19 C3          -2.3080     3.4470    -0.5530 cc         1 GY9      -0.004100
     20 C4          -1.5620     4.4510     0.2320 c          1 GY9       0.521200
     21 C5          -2.4360     1.5120    -2.2470 c          1 GY9       0.634300
     22 C6           3.8330     3.6110    -2.4180 c5         1 GY9      -0.092400
     23 C7           2.3710     4.1140    -2.3550 c5         1 GY9      -0.088400
     24 C8           1.9260     3.6340    -0.9400 c5         1 GY9       0.087400
     25 C9           3.6940     2.1670    -1.8730 c5         1 GY9       0.107000
     26 N1          -0.2650     2.6540    -1.5530 nd         1 GY9      -0.567300
     27 N2          -0.2360     4.4220     0.0190 ns         1 GY9      -0.377400
     28 N3          -3.8010     1.4550    -2.0710 ns         1 GY9      -0.489900
     29 N4           2.6630     2.3440    -0.8260 n          1 GY9      -0.412800
     30 O1          -3.6480     3.5140    -0.3040 oh         1 GY9      -0.512100
     31 O2          -2.0780     5.2440     1.0080 o          1 GY9      -0.557000
     32 O3          -1.8820     0.7440    -3.0280 o          1 GY9      -0.579100
     33 O4           2.7550    -0.8510     1.1890 os         1 GY9      -0.291100
     34 O5           1.6660     1.6930     1.1310 o          1 GY9      -0.563100
     35 O6          -4.7580    -0.9130    -0.6860 os         1 GY9      -0.352100
     36 H1           2.9630    -0.3780    -0.8450 h1         1 GY9       0.053700
     37 H2           4.2470     0.2550     0.2120 h1         1 GY9       0.053700
     38 H3          -4.5150     0.4370    -3.7640 h1         1 GY9       0.065700
     39 H4          -5.7350     0.7800    -2.5240 h1         1 GY9       0.065700
     40 H5          -5.2200    -1.6430    -2.5980 h1         1 GY9       0.048200
     41 H6          -3.4940    -1.3120    -2.3120 h1         1 GY9       0.048200
     42 H7           4.6440    -5.7630     1.7470 ha         1 GY9       0.119000
     43 H8           2.9030    -4.8950     3.3050 ha         1 GY9       0.130000
     44 H9           4.6500    -2.0230    -0.3790 ha         1 GY9       0.114000
     45 H10          5.5070    -4.3180    -0.0890 ha         1 GY9       0.114000
     46 H11         -4.3190    -5.0730     2.5410 ha         1 GY9       0.114000
     47 H12         -4.9400    -2.8300     3.4350 ha         1 GY9       0.111000
     48 H13         -5.1400    -0.8870     1.8860 ha         1 GY9       0.119500
     49 H14         -4.0970    -3.4540    -1.4420 ha         1 GY9       0.119500
     50 H15         -3.9010    -5.3730     0.1030 ha         1 GY9       0.111000
     51 H16          4.2510     3.6380    -3.4300 hc         1 GY9       0.059700
     52 H17          4.4870     4.2130    -1.7760 hc         1 GY9       0.059700
     53 H18          2.2900     5.2000    -2.4740 hc         1 GY9       0.067200
     54 H19          1.7710     3.6550    -3.1510 hc         1 GY9       0.067200
     55 H20          2.3100     4.3260    -0.1770 h1         1 GY9       0.067700
     56 H21          3.3420     1.4750    -2.6500 h1         1 GY9       0.054700
     57 H22          4.6470     1.7940    -1.4750 h1         1 GY9       0.054700
     58 H23          0.3110     5.0870     0.5460 hn         1 GY9       0.338500
     59 H24         -4.1860     2.1120    -1.4000 hn         1 GY9       0.331500
     60 H25         -3.7740     4.2380     0.3570 ho         1 GY9       0.497000
     61 Cl1          1.5500    -2.3720     3.4680 cl         1 GY9      -0.173000
@<TRIPOS>BOND
     1     1    24 1   
     2     1    26 2   
     3     1    27 1   
     4     2     3 1   
     5     2    29 1   
     6     2    34 2   
     7     3    33 1   
     8     3    36 1   
     9     3    37 1   
    10     4     5 1   
    11     4    28 1   
    12     4    38 1   
    13     4    39 1   
    14     5    35 1   
    15     5    40 1   
    16     5    41 1   
    17     6     7 ar  
    18     6    11 ar  
    19     6    42 1   
    20     7     8 ar  
    21     7    43 1   
    22     8     9 ar  
    23     8    61 1   
    24     9    10 ar  
    25     9    33 1   
    26    10    11 ar  
    27    10    44 1   
    28    11    45 1   
    29    12    19 2   
    30    12    21 1   
    31    12    26 1   
    32    13    14 ar  
    33    13    18 ar  
    34    13    46 1   
    35    14    15 ar  
    36    14    47 1   
    37    15    16 ar  
    38    15    48 1   
    39    16    17 ar  
    40    16    35 1   
    41    17    18 ar  
    42    17    49 1   
    43    18    50 1   
    44    19    20 1   
    45    19    30 1   
    46    20    27 1   
    47    20    31 2   
    48    21    28 1   
    49    21    32 2   
    50    22    23 1   
    51    22    25 1   
    52    22    51 1   
    53    22    52 1   
    54    23    24 1   
    55    23    53 1   
    56    23    54 1   
    57    24    29 1   
    58    24    55 1   
    59    25    29 1   
    60    25    56 1   
    61    25    57 1   
    62    27    58 1   
    63    28    59 1   
    64    30    60 1   
@<TRIPOS>SUBSTRUCTURE
     1 GY9         1 TEMP              0 ****  ****    0 ROOT
