@<TRIPOS>MOLECULE
GYA
   69    73     1     0     0
SMALL
bcc


@<TRIPOS>ATOM
      1 C1          -5.8800     1.8330    -0.7470 c          1 GYA       0.651700
      2 C10          6.0170     2.2470    -1.7560 c3         1 GYA       0.121700
      3 C11          4.5800     0.7770     1.2360 ca         1 GYA       0.105100
      4 C12          5.7540    -0.3760     2.9350 c3         1 GYA       0.121700
      5 C13          3.3530     0.5690     1.8430 ca         1 GYA      -0.166500
      6 C14          2.2090     1.1050     1.2640 ca         1 GYA      -0.083300
      7 C15          0.7860     0.9540     1.7090 c5         1 GYA      -0.043600
      8 C16         -4.6350    -0.1340    -0.1680 cc         1 GYA       0.457900
      9 C17         -4.6860    -1.6350    -0.0310 c5         1 GYA       0.082400
     10 C19         -0.9810    -2.3370    -0.1940 c3         1 GYA      -0.128300
     11 C2          -4.6970     2.5830    -0.3360 cc         1 GYA       0.047900
     12 C20          1.7290    -1.8740    -0.5730 ca         1 GYA       0.015900
     13 C21          1.9120    -2.6540     0.5660 ca         1 GYA      -0.140000
     14 C22          3.1880    -2.9610     1.0180 ca         1 GYA      -0.118000
     15 C23          4.3040    -2.4970     0.3440 ca         1 GYA      -0.123000
     16 C24          4.1430    -1.7060    -0.7840 ca         1 GYA      -0.094000
     17 C25          2.8700    -1.4050    -1.2300 ca         1 GYA       0.038400
     18 C26         -3.2530    -2.8240     1.5080 c5         1 GYA       0.106000
     19 C27         -4.6930    -3.2140     1.7990 c5         1 GYA      -0.091400
     20 C28         -5.4880    -2.0480     1.2230 c5         1 GYA      -0.092400
     21 C3          -3.6040     1.8980     0.1010 cd         1 GYA       0.029400
     22 C4          -2.3110     2.5640     0.4650 c          1 GYA       0.699300
     23 C5           0.0590     2.0540     0.9140 c5         1 GYA       0.115700
     24 C6           0.9220     2.2830    -0.3470 c5         1 GYA      -0.043600
     25 C7           2.2850     1.8510     0.1050 ca         1 GYA      -0.083300
     26 C8           3.5110     2.0650    -0.5160 ca         1 GYA      -0.166500
     27 C9           4.6580     1.5210     0.0390 ca         1 GYA       0.105100
     28 N1          -1.3090     1.6940     0.6460 ns         1 GYA      -0.553900
     29 N2          -3.6060     0.5340     0.1960 nd         1 GYA      -0.612300
     30 N3          -3.3650    -2.1770     0.2060 n          1 GYA      -0.470800
     31 N4          -5.7520     0.4750    -0.6410 ns         1 GYA      -0.457400
     32 O1          -6.8880     2.3820    -1.1640 o          1 GYA      -0.627500
     33 O2          -4.7770     3.9030    -0.4510 oh         1 GYA      -0.430100
     34 O3           5.8960     1.6330    -0.4910 os         1 GYA      -0.301900
     35 O5          -2.2010     3.7770     0.5700 o          1 GYA      -0.583100
     36 O6          -2.5610    -1.5080    -1.7860 o          1 GYA      -0.571100
     37 S1           0.1700    -1.4560    -1.2740 ss         1 GYA      -0.116000
     38 CL1          2.6860    -0.4510    -2.6640 cl         1 GYA      -0.093400
     39 H1           5.4160     1.7380    -2.5150 h1         1 GYA       0.037867
     40 H2           5.7290     3.3020    -1.7340 h1         1 GYA       0.037867
     41 H3           7.0660     2.1800    -2.0340 h1         1 GYA       0.037867
     42 H4           5.4130     0.2700     3.7500 h1         1 GYA       0.037867
     43 H5           5.1310    -1.2740     2.9190 h1         1 GYA       0.037867
     44 H6           6.7830    -0.6700     3.1300 h1         1 GYA       0.037867
     45 H7           3.2730    -0.0230     2.7450 ha         1 GYA       0.138500
     46 H8           0.4140    -0.0400     1.4270 hc         1 GYA       0.059450
     47 H9           0.6390     1.0550     2.7850 hc         1 GYA       0.059450
     48 H10         -5.1290    -2.0640    -0.9350 h1         1 GYA       0.084700
     49 H11         -0.8430    -2.0350     0.8460 h1         1 GYA       0.081200
     50 H12         -0.8240    -3.4170    -0.2520 h1         1 GYA       0.081200
     51 H13          1.0630    -3.0440     1.1090 ha         1 GYA       0.124000
     52 H14          3.2990    -3.5760     1.9010 ha         1 GYA       0.130000
     53 H15          5.3000    -2.7400     0.6890 ha         1 GYA       0.140000
     54 H16          5.0030    -1.3260    -1.3180 ha         1 GYA       0.154000
     55 H17         -2.8680    -2.1320     2.2620 h1         1 GYA       0.053200
     56 H18         -2.5900    -3.6870     1.4640 h1         1 GYA       0.053200
     57 H19         -4.9410    -4.1420     1.2820 hc         1 GYA       0.062200
     58 H20         -4.8760    -3.3590     2.8620 hc         1 GYA       0.062200
     59 H21         -5.5170    -1.2260     1.9410 hc         1 GYA       0.063700
     60 H22         -6.5150    -2.3070     0.9730 hc         1 GYA       0.063700
     61 H23          0.0600     2.9710     1.5050 h1         1 GYA       0.079700
     62 H24          0.5710     1.6520    -1.1690 hc         1 GYA       0.059450
     63 H25          0.8780     3.3180    -0.6910 hc         1 GYA       0.059450
     64 H26          3.5560     2.6390    -1.4320 ha         1 GYA       0.138500
     65 H27         -1.5220     0.7230     0.4740 hn         1 GYA       0.333500
     66 H28         -6.5420    -0.0850    -0.9410 hn         1 GYA       0.336500
     67 H29         -5.6540     4.1250    -0.8020 ho         1 GYA       0.452000
     68 C18         -2.3740    -1.9780    -0.6750 c          1 GYA       0.698100
     69 O4           5.7540     0.2950     1.6950 os         1 GYA      -0.301900
@<TRIPOS>BOND
     1     1    11 1   
     2     1    31 1   
     3     1    32 2   
     4     2    34 1   
     5     2    39 1   
     6     2    40 1   
     7     2    41 1   
     8     3     5 ar  
     9     3    27 ar  
    10     3    69 1   
    11     4    42 1   
    12     4    43 1   
    13     4    44 1   
    14     4    69 1   
    15     5     6 ar  
    16     5    45 1   
    17     6     7 1   
    18     6    25 ar  
    19     7    23 1   
    20     7    46 1   
    21     7    47 1   
    22     8     9 1   
    23     8    29 2   
    24     8    31 1   
    25     9    20 1   
    26     9    30 1   
    27     9    48 1   
    28    10    37 1   
    29    10    49 1   
    30    10    50 1   
    31    10    68 1   
    32    11    21 2   
    33    11    33 1   
    34    12    13 ar  
    35    12    17 ar  
    36    12    37 1   
    37    13    14 ar  
    38    13    51 1   
    39    14    15 ar  
    40    14    52 1   
    41    15    16 ar  
    42    15    53 1   
    43    16    17 ar  
    44    16    54 1   
    45    17    38 1   
    46    18    19 1   
    47    18    30 1   
    48    18    55 1   
    49    18    56 1   
    50    19    20 1   
    51    19    57 1   
    52    19    58 1   
    53    20    59 1   
    54    20    60 1   
    55    21    22 1   
    56    21    29 1   
    57    22    28 1   
    58    22    35 2   
    59    23    24 1   
    60    23    28 1   
    61    23    61 1   
    62    24    25 1   
    63    24    62 1   
    64    24    63 1   
    65    25    26 ar  
    66    26    27 ar  
    67    26    64 1   
    68    27    34 1   
    69    28    65 1   
    70    30    68 1   
    71    31    66 1   
    72    33    67 1   
    73    36    68 2   
@<TRIPOS>SUBSTRUCTURE
     1 GYA         1 TEMP              0 ****  ****    0 ROOT
