@<TRIPOS>MOLECULE
GYA
   69    73     1     0     0
SMALL
No Charge or Current Charge


@<TRIPOS>ATOM
      1 C1          -5.7780     1.7510    -1.0260 c          1 GYA       0.509200
      2 C10          5.8910     1.9760    -1.8710 c3         1 GYA       0.144900
      3 C11          4.4520     0.7460     1.3710 ca         1 GYA       0.105100
      4 C12          5.5860    -0.6040     3.1070 c3         1 GYA       0.144900
      5 C13          3.2230     0.7230     2.0760 ca         1 GYA      -0.148500
      6 C14          2.1040     1.3600     1.5210 ca         1 GYA      -0.083300
      7 C15          0.7250     1.4150     2.1210 c5         1 GYA      -0.043600
      8 C16         -4.6090    -0.1500    -0.1220 cc         1 GYA       0.457900
      9 C17         -4.6410    -1.6500     0.1750 c5         1 GYA       0.082400
     10 C19         -0.9940    -2.6190    -0.8500 c3         1 GYA      -0.080400
     11 C2          -4.5750     2.5260    -0.6570 cc         1 GYA       0.047900
     12 C20          1.6660    -1.6520    -0.4500 ca         1 GYA      -0.111000
     13 C21          1.9010    -2.4270     0.7020 ca         1 GYA      -0.122000
     14 C22          3.1990    -2.8740     1.0000 ca         1 GYA      -0.100000
     15 C23          4.2700    -2.5480     0.1510 ca         1 GYA      -0.105000
     16 C24          4.0410    -1.7710    -0.9980 ca         1 GYA      -0.076000
     17 C25          2.7440    -1.3200    -1.2980 ca         1 GYA       0.130000
     18 C26         -3.0450    -3.1740     1.3090 c5         1 GYA       0.106000
     19 C27         -4.4600    -3.3070     1.9250 c5         1 GYA      -0.091400
     20 C28         -5.0520    -1.9030     1.6570 c5         1 GYA      -0.092400
     21 C3          -3.4630     1.9400    -0.0460 cd         1 GYA       0.029400
     22 C4          -2.2390     2.7580     0.3010 c          1 GYA       0.632300
     23 C5           0.0390     2.5190     1.2190 c5         1 GYA       0.115700
     24 C6           0.8670     2.5950    -0.1280 c5         1 GYA      -0.043600
     25 C7           2.1820     2.0030     0.3040 ca         1 GYA      -0.083300
     26 C8           3.3840     2.0430    -0.4170 ca         1 GYA      -0.148500
     27 C9           4.5320     1.4080     0.1170 ca         1 GYA       0.105100
     28 N1          -1.2670     1.9510     0.8610 ns         1 GYA      -0.486900
     29 N2          -3.5220     0.5480     0.2290 nd         1 GYA      -0.612300
     30 N3          -3.3210    -2.3410     0.1200 n          1 GYA      -0.403800
     31 N4          -5.6870     0.4400    -0.7190 ns         1 GYA      -0.390400
     32 O1          -6.7720     2.2240    -1.5600 o          1 GYA      -0.552000
     33 O2          -4.6820     3.8440    -0.9830 oh         1 GYA      -0.469100
     34 O3           5.7400     1.4000    -0.5620 os         1 GYA      -0.325100
     35 O5          -2.0790     3.9620     0.1280 o          1 GYA      -0.583100
     36 O6          -2.9100    -1.8560    -2.0790 o          1 GYA      -0.571100
     37 S1           0.0110    -1.0710    -0.8050 ss         1 GYA      -0.037000
     38 Cl1          2.4910    -0.3550    -2.7530 cl         1 GYA      -0.185000
     39 H1           5.2170     1.4910    -2.5890 h1         1 GYA       0.037867
     40 H2           5.6720     3.0510    -1.8520 h1         1 GYA       0.037867
     41 H3           6.9200     1.8450    -2.2270 h1         1 GYA       0.037867
     42 H4           5.3180     0.0490     3.9470 h1         1 GYA       0.037867
     43 H5           4.8730    -1.4370     3.0650 h1         1 GYA       0.037867
     44 H6           6.5820    -1.0190     3.3030 h1         1 GYA       0.037867
     45 H7           3.1210     0.2200     3.0320 ha         1 GYA       0.120500
     46 H8           0.2390     0.4340     2.0570 hc         1 GYA       0.059450
     47 H9           0.7350     1.7060     3.1770 hc         1 GYA       0.059450
     48 H10         -5.3410    -2.1470    -0.5100 h1         1 GYA       0.084700
     49 H11         -0.8270    -3.1920     0.0670 h1         1 GYA       0.081200
     50 H12         -0.6880    -3.2310    -1.7060 h1         1 GYA       0.081200
     51 H13          1.0820    -2.6730     1.3730 ha         1 GYA       0.106000
     52 H14          3.3770    -3.4700     1.8930 ha         1 GYA       0.112000
     53 H15          5.2750    -2.8910     0.3840 ha         1 GYA       0.122000
     54 H16          4.8690    -1.5120    -1.6530 ha         1 GYA       0.136000
     55 H17         -2.3540    -2.6590     1.9900 h1         1 GYA       0.053200
     56 H18         -2.6240    -4.1550     1.0500 h1         1 GYA       0.053200
     57 H19         -5.0400    -4.0860     1.4150 hc         1 GYA       0.062200
     58 H20         -4.4310    -3.5630     2.9900 hc         1 GYA       0.062200
     59 H21         -4.6080    -1.1610     2.3320 hc         1 GYA       0.063700
     60 H22         -6.1380    -1.8650     1.8030 hc         1 GYA       0.063700
     61 H23         -0.0130     3.4900     1.7310 h1         1 GYA       0.079700
     62 H24          0.4250     2.0070    -0.9410 hc         1 GYA       0.059450
     63 H25          0.9630     3.6260    -0.4860 hc         1 GYA       0.059450
     64 H26          3.4050     2.5520    -1.3760 ha         1 GYA       0.120500
     65 H27         -1.5170     0.9730     0.9480 hn         1 GYA       0.333500
     66 H28         -6.4880    -0.1260    -0.9590 hn         1 GYA       0.336500
     67 H29         -5.5690     3.9590    -1.3970 ho         1 GYA       0.491000
     68 C18         -2.4780    -2.2650    -1.0090 c          1 GYA       0.631100
     69 O4           5.5880     0.1290     1.8700 os         1 GYA      -0.325100
@<TRIPOS>BOND
     1     1    11 1   
     2     1    31 1   
     3     1    32 2   
     4     2    34 1   
     5     2    39 1   
     6     2    40 1   
     7     2    41 1   
     8     3     5 ar  
     9     3    27 ar  
    10     3    69 1   
    11     4    42 1   
    12     4    43 1   
    13     4    44 1   
    14     4    69 1   
    15     5     6 ar  
    16     5    45 1   
    17     6     7 1   
    18     6    25 ar  
    19     7    23 1   
    20     7    46 1   
    21     7    47 1   
    22     8     9 1   
    23     8    29 2   
    24     8    31 1   
    25     9    20 1   
    26     9    30 1   
    27     9    48 1   
    28    10    37 1   
    29    10    49 1   
    30    10    50 1   
    31    10    68 1   
    32    11    21 2   
    33    11    33 1   
    34    12    13 ar  
    35    12    17 ar  
    36    12    37 1   
    37    13    14 ar  
    38    13    51 1   
    39    14    15 ar  
    40    14    52 1   
    41    15    16 ar  
    42    15    53 1   
    43    16    17 ar  
    44    16    54 1   
    45    17    38 1   
    46    18    19 1   
    47    18    30 1   
    48    18    55 1   
    49    18    56 1   
    50    19    20 1   
    51    19    57 1   
    52    19    58 1   
    53    20    59 1   
    54    20    60 1   
    55    21    22 1   
    56    21    29 1   
    57    22    28 1   
    58    22    35 2   
    59    23    24 1   
    60    23    28 1   
    61    23    61 1   
    62    24    25 1   
    63    24    62 1   
    64    24    63 1   
    65    25    26 ar  
    66    26    27 ar  
    67    26    64 1   
    68    27    34 1   
    69    28    65 1   
    70    30    68 1   
    71    31    66 1   
    72    33    67 1   
    73    36    68 2   
@<TRIPOS>SUBSTRUCTURE
     1 GYA         1 TEMP              0 ****  ****    0 ROOT
