@<TRIPOS>MOLECULE
GYB
   46    49     1     0     0
SMALL
No Charge or Current Charge


@<TRIPOS>ATOM
      1 CAH          1.0550     3.6570     3.0540 c3         1 GYB       0.107300
      2 NAI          0.9100     2.9610     1.7770 ns         1 GYB      -0.506900
      3 CAJ          1.7990     3.0380     0.7320 c          1 GYB       0.650100
      4 OAS          2.8090     3.7270     0.8020 o          1 GYB      -0.640100
      5 NAK          1.4490     2.2660    -0.4180 n          1 GYB      -0.185800
      6 NAL          0.2920     1.4880    -0.4200 n2         1 GYB      -0.513300
      7 CAB          2.3460     2.3030    -1.6040 c3         1 GYB       0.117700
      8 CAA          1.9500     3.4430    -2.5680 c3         1 GYB      -0.119100
      9 CAC          2.3830     0.9440    -2.3450 c3         1 GYB      -0.047100
     10 CAD          2.6210    -0.2140    -1.3820 ca         1 GYB      -0.038300
     11 CAE          3.8390    -0.9300    -1.4480 ca         1 GYB      -0.098000
     12 CAF          4.0450    -1.9810    -0.5490 ca         1 GYB       0.070100
     13 OAG          5.1600    -2.7510    -0.4680 os         1 GYB      -0.341100
     14 CAR          4.8100    -3.7140     0.5890 c5         1 GYB       0.373600
     15 OAQ          3.5140    -3.3410     1.1790 os         1 GYB      -0.342100
     16 CAP          3.1100    -2.3160     0.3850 ca         1 GYB       0.043100
     17 CAO          1.8950    -1.6320     0.4870 ca         1 GYB      -0.068000
     18 CAN          1.6270    -0.5770    -0.4220 ca         1 GYB      -0.165900
     19 CAM          0.3370     0.1910    -0.2970 ce         1 GYB       0.535500
     20 CAU         -0.9370    -0.5640    -0.0550 ca         1 GYB      -0.206900
     21 CAV         -2.0440     0.0710     0.5520 ca         1 GYB       0.005000
     22 CAY         -3.2540    -0.6220     0.7390 ca         1 GYB      -0.110900
     23 Br1         -4.7170     0.2900     1.5920 br         1 GYB      -0.103100
     24 CAX         -3.3790    -1.9530     0.3010 ca         1 GYB       0.361000
     25 NBA         -4.5480    -2.6460     0.4710 nv         1 GYB      -1.081000
     26 CAW         -2.2980    -2.5790    -0.3300 ca         1 GYB      -0.204000
     27 CAT         -1.0880    -1.8900    -0.5190 ca         1 GYB      -0.021000
     28 H1           0.2040     3.4150     3.7030 h1         1 GYB       0.037033
     29 H2           1.9850     3.3410     3.5440 h1         1 GYB       0.037033
     30 H3           1.0830     4.7410     2.8830 h1         1 GYB       0.037033
     31 H4           0.0960     2.3810     1.6130 hn         1 GYB       0.328500
     32 H6           3.3700     2.4960    -1.2560 h1         1 GYB       0.091700
     33 H7           1.9860     4.4110    -2.0550 hc         1 GYB       0.046700
     34 H8           2.6360     3.4850    -3.4220 hc         1 GYB       0.046700
     35 H9           0.9320     3.2950    -2.9490 hc         1 GYB       0.046700
     36 H10          1.4390     0.7890    -2.8830 hc         1 GYB       0.059200
     37 H11          3.1640     0.9790    -3.1150 hc         1 GYB       0.059200
     38 H12          4.6080    -0.6730    -2.1720 ha         1 GYB       0.137000
     39 H13          4.7270    -4.7140     0.1470 h2         1 GYB       0.065700
     40 H14          1.1790    -1.9110     1.2580 ha         1 GYB       0.143000
     41 H16         -1.9710     1.1020     0.8910 ha         1 GYB       0.137000
     42 H17         -5.3800    -2.1360     0.7630 hn         1 GYB       0.474500
     43 H18         -4.6920    -3.5190    -0.0310 hn         1 GYB       0.474500
     44 H19         -2.3920    -3.6010    -0.6850 ha         1 GYB       0.117000
     45 H20         -0.2730    -2.3940    -1.0350 ha         1 GYB       0.124000
     46 H5           5.5850    -3.7090     1.3640 h2         1 GYB       0.065700
@<TRIPOS>BOND
     1     1     2 1   
     2     1    28 1   
     3     1    29 1   
     4     1    30 1   
     5     2     3 1   
     6     2    31 1   
     7     3     4 2   
     8     3     5 1   
     9     5     6 1   
    10     5     7 1   
    11     6    19 2   
    12     7     8 1   
    13     7     9 1   
    14     7    32 1   
    15     8    33 1   
    16     8    34 1   
    17     8    35 1   
    18     9    10 1   
    19     9    36 1   
    20     9    37 1   
    21    10    11 ar  
    22    10    18 ar  
    23    11    12 ar  
    24    11    38 1   
    25    12    13 1   
    26    12    16 ar  
    27    13    14 1   
    28    14    15 1   
    29    14    39 1   
    30    14    46 1   
    31    15    16 1   
    32    16    17 ar  
    33    17    18 ar  
    34    17    40 1   
    35    18    19 1   
    36    19    20 1   
    37    20    21 ar  
    38    20    27 ar  
    39    21    22 ar  
    40    21    41 1   
    41    22    23 1   
    42    22    24 ar  
    43    24    25 1   
    44    24    26 ar  
    45    25    42 1   
    46    25    43 1   
    47    26    27 ar  
    48    26    44 1   
    49    27    45 1   
@<TRIPOS>SUBSTRUCTURE
     1 GYB         1 TEMP              0 ****  ****    0 ROOT
