@<TRIPOS>MOLECULE
GYB
   46    49     1     0     0
SMALL
abcg2


@<TRIPOS>ATOM
      1 CAH          1.0230     4.1620     2.8100 c3         1 GYB       0.107300
      2 NAI          0.9640     3.1220     1.8130 ns         1 GYB      -0.506900
      3 CAJ          1.8620     3.0650     0.8100 c          1 GYB       0.650100
      4 OAS          2.8190     3.8290     0.7350 o          1 GYB      -0.640100
      5 NAK          1.6830     2.0440    -0.1050 n          1 GYB      -0.185800
      6 NAL          0.4440     1.4040    -0.0520 n2         1 GYB      -0.513300
      7 CAB          2.3130     2.1980    -1.4220 c3         1 GYB       0.117700
      8 CAA          1.6640     3.2910    -2.2610 c3         1 GYB      -0.119100
      9 CAC          2.2950     0.8640    -2.1670 c3         1 GYB      -0.047100
     10 CAD          2.6220    -0.2950    -1.2750 ca         1 GYB      -0.038300
     11 CAE          3.8150    -1.0100    -1.4350 ca         1 GYB      -0.098000
     12 CAF          4.0400    -2.0660    -0.5860 ca         1 GYB       0.070100
     13 OAG          5.1120    -2.8850    -0.5260 os         1 GYB      -0.341100
     14 CAR          4.7830    -3.9080     0.4080 c5         1 GYB       0.373600
     15 OAQ          3.6150    -3.4800     1.0950 os         1 GYB      -0.342100
     16 CAP          3.1270    -2.4280     0.3930 ca         1 GYB       0.043100
     17 CAO          1.9480    -1.7550     0.5640 ca         1 GYB      -0.068000
     18 CAN          1.7060    -0.6660    -0.2920 ca         1 GYB      -0.165900
     19 CAM          0.4680     0.1230    -0.1240 ce         1 GYB       0.535500
     20 CAU         -0.8180    -0.5840    -0.0220 ca         1 GYB      -0.206900
     21 CAV         -1.9110     0.0140     0.6060 ca         1 GYB       0.005000
     22 CAY         -3.1240    -0.6380     0.6890 ca         1 GYB      -0.110900
     23 BR1         -4.5490     0.2160     1.5940 br         1 GYB      -0.103100
     24 CAX         -3.3220    -1.9160     0.1340 ca         1 GYB       0.361000
     25 NBA         -4.4920    -2.6010     0.2370 nv         1 GYB      -1.081000
     26 CAW         -2.2150    -2.4950    -0.5070 ca         1 GYB      -0.204000
     27 CAT         -0.9980    -1.8530    -0.5760 ca         1 GYB      -0.021000
     28 H1           0.2250     3.9910     3.5260 h1         1 GYB       0.037033
     29 H2           1.9690     4.1460     3.3500 h1         1 GYB       0.037033
     30 H3           0.8920     5.1600     2.3850 h1         1 GYB       0.037033
     31 H4           0.1320     2.5620     1.7490 hn         1 GYB       0.328500
     32 H6           3.3530     2.4590    -1.2250 h1         1 GYB       0.091700
     33 H7           1.7240     4.2610    -1.7680 hc         1 GYB       0.046700
     34 H8           2.1690     3.3790    -3.2240 hc         1 GYB       0.046700
     35 H9           0.6150     3.0640    -2.4530 hc         1 GYB       0.046700
     36 H10          1.3140     0.7120    -2.6270 hc         1 GYB       0.059200
     37 H11          3.0100     0.9260    -2.9880 hc         1 GYB       0.059200
     38 H12          4.5310    -0.7340    -2.1980 ha         1 GYB       0.137000
     39 H13          4.5810    -4.8420    -0.1260 h2         1 GYB       0.065700
     40 H14          1.2400    -2.0380     1.3320 ha         1 GYB       0.143000
     41 H16         -1.7990     0.9990     1.0400 ha         1 GYB       0.137000
     42 H17         -5.3500    -2.0940     0.3790 hn         1 GYB       0.474500
     43 H18         -4.5970    -3.4080    -0.3550 hn         1 GYB       0.474500
     44 H19         -2.3310    -3.4720    -0.9600 ha         1 GYB       0.117000
     45 H20         -0.1830    -2.3410    -1.0940 ha         1 GYB       0.124000
     46 H5           5.6020    -4.0380     1.1140 h2         1 GYB       0.065700
@<TRIPOS>BOND
     1     1     2 1   
     2     1    28 1   
     3     1    29 1   
     4     1    30 1   
     5     2     3 1   
     6     2    31 1   
     7     3     4 2   
     8     3     5 1   
     9     5     6 1   
    10     5     7 1   
    11     6    19 2   
    12     7     8 1   
    13     7     9 1   
    14     7    32 1   
    15     8    33 1   
    16     8    34 1   
    17     8    35 1   
    18     9    10 1   
    19     9    36 1   
    20     9    37 1   
    21    10    11 ar  
    22    10    18 ar  
    23    11    12 ar  
    24    11    38 1   
    25    12    13 1   
    26    12    16 ar  
    27    13    14 1   
    28    14    15 1   
    29    14    39 1   
    30    14    46 1   
    31    15    16 1   
    32    16    17 ar  
    33    17    18 ar  
    34    17    40 1   
    35    18    19 1   
    36    19    20 1   
    37    20    21 ar  
    38    20    27 ar  
    39    21    22 ar  
    40    21    41 1   
    41    22    23 1   
    42    22    24 ar  
    43    24    25 1   
    44    24    26 ar  
    45    25    42 1   
    46    25    43 1   
    47    26    27 ar  
    48    26    44 1   
    49    27    45 1   
@<TRIPOS>SUBSTRUCTURE
     1 GYB         1 TEMP              0 ****  ****    0 ROOT
