@<TRIPOS>MOLECULE
GYC
   36    37     1     0     0
SMALL
abcg2


@<TRIPOS>ATOM
      1 N           -1.3000    -2.4030    -1.6010 n8         1 GYC      -0.994200
      2 SG1         -3.5840    -3.2860     0.6070 sh         1 GYC      -0.448800
      3 CB1         -2.4120    -1.8990     0.6100 c3         1 GYC       0.033600
      4 CA1         -2.0200    -1.4340    -0.8040 c3         1 GYC       0.142200
      5 C1          -1.1820    -0.2010    -0.6500 cc         1 GYC       0.502900
      6 N2           0.0920    -0.2470    -0.4530 nd         1 GYC      -0.669300
      7 N3          -1.7070     1.0700    -0.6570 n          1 GYC      -0.301300
      8 C2          -0.6800     1.9500    -0.3960 c          1 GYC       0.541200
      9 O2          -0.7820     3.1570    -0.3040 o          1 GYC      -0.503000
     10 CA2          0.5040     1.0690    -0.2910 cd         1 GYC       0.030400
     11 CA3         -3.0880     1.4780    -0.6930 c3         1 GYC      -0.056000
     12 CB2          1.7480     1.5410    -0.0800 ce         1 GYC      -0.101200
     13 CG2          3.0000     0.8260     0.0340 ca         1 GYC      -0.073800
     14 CD1          3.1230    -0.5680    -0.0540 ca         1 GYC      -0.052000
     15 CD2          4.1700     1.5700     0.2430 ca         1 GYC      -0.052000
     16 CE1          4.3550    -1.1820     0.0610 ca         1 GYC      -0.189000
     17 CE2          5.4050     0.9680     0.3590 ca         1 GYC      -0.189000
     18 CZ           5.5070    -0.4200     0.2670 ca         1 GYC       0.130100
     19 OH           6.7260    -0.9680     0.3810 oh         1 GYC      -0.542100
     20 C           -3.7120     1.6750     0.7080 c          1 GYC       0.713000
     21 O           -3.0200     1.3560     1.6890 o          1 GYC      -0.715500
     22 OXT         -4.8670     2.1360     0.6950 o          1 GYC      -0.715500
     23 HN1         -0.4610    -2.6930    -1.1130 hn         1 GYC       0.399500
     24 HN2         -1.8730    -3.2290    -1.7200 hn         1 GYC       0.399500
     25 HG1         -2.7140    -4.2620     0.3260 hs         1 GYC       0.177800
     26 HB11        -2.8990    -1.0930     1.1590 h1         1 GYC       0.108700
     27 HB12        -1.5200    -2.1820     1.1720 h1         1 GYC       0.108700
     28 HA1         -2.9380    -1.1810    -1.3400 h1         1 GYC       0.093700
     29 HA31        -3.1550     2.4070    -1.2590 h1         1 GYC       0.046200
     30 HA32        -3.6670     0.7430    -1.2530 h1         1 GYC       0.046200
     31 HB2          1.8220     2.6200     0.0160 ha         1 GYC       0.185000
     32 HD1          2.2440    -1.1750    -0.2150 ha         1 GYC       0.130500
     33 HD2          4.1050     2.6500     0.3160 ha         1 GYC       0.130500
     34 HE1          4.4240    -2.2610    -0.0120 ha         1 GYC       0.111000
     35 HE2          6.2940     1.5650     0.5210 ha         1 GYC       0.111000
     36 HOH          6.6770    -1.9280     0.3060 ho         1 GYC       0.459000
@<TRIPOS>BOND
     1     1     4 1   
     2     1    23 1   
     3     1    24 1   
     4     2     3 1   
     5     2    25 1   
     6     3     4 1   
     7     3    26 1   
     8     3    27 1   
     9     4     5 1   
    10     4    28 1   
    11     5     6 2   
    12     5     7 1   
    13     6    10 1   
    14     7     8 1   
    15     7    11 1   
    16     8     9 2   
    17     8    10 1   
    18    10    12 2   
    19    11    20 1   
    20    11    29 1   
    21    11    30 1   
    22    12    13 1   
    23    12    31 1   
    24    13    14 ar  
    25    13    15 ar  
    26    14    16 ar  
    27    14    32 1   
    28    15    17 ar  
    29    15    33 1   
    30    16    18 ar  
    31    16    34 1   
    32    17    18 ar  
    33    17    35 1   
    34    18    19 1   
    35    19    36 1   
    36    20    21 1   
    37    20    22 1   
@<TRIPOS>SUBSTRUCTURE
     1 GYC         1 TEMP              0 ****  ****    0 ROOT
