@<TRIPOS>MOLECULE
GYC
   36    37     1     0     0
SMALL
No Charge or Current Charge


@<TRIPOS>ATOM
      1 N           -1.9230    -2.2980    -1.5910 n8         1 GYC      -0.994200
      2 SG1         -2.9630    -3.6690     1.1050 sh         1 GYC      -0.448800
      3 CB1         -1.9190    -2.1340     0.9190 c3         1 GYC       0.033600
      4 CA1         -2.1080    -1.3720    -0.4190 c3         1 GYC       0.142200
      5 C1          -1.2290    -0.1080    -0.4690 cc         1 GYC       0.502900
      6 N2           0.1030    -0.1540    -0.3080 nd         1 GYC      -0.669300
      7 N3          -1.7210     1.1700    -0.7050 n          1 GYC      -0.301300
      8 C2          -0.6880     2.0740    -0.6960 c          1 GYC       0.541200
      9 O2          -0.7370     3.2880    -0.8520 o          1 GYC      -0.503000
     10 CA2          0.4630     1.1840    -0.4460 cd         1 GYC       0.030400
     11 CA3         -3.1440     1.5690    -0.8920 c3         1 GYC      -0.056000
     12 CB2          1.7710     1.6160    -0.3290 ce         1 GYC      -0.101200
     13 CG2          3.0350     0.8620    -0.0680 ca         1 GYC      -0.073800
     14 CD1          3.2240    -0.4610    -0.5240 ca         1 GYC      -0.052000
     15 CD2          4.0820     1.5010     0.6260 ca         1 GYC      -0.052000
     16 CE1          4.4330    -1.1350    -0.2730 ca         1 GYC      -0.189000
     17 CE2          5.2890     0.8240     0.8770 ca         1 GYC      -0.189000
     18 CZ           5.4630    -0.4920     0.4300 ca         1 GYC       0.130100
     19 OH           6.6350    -1.1400     0.6750 oh         1 GYC      -0.542100
     20 C           -3.9250     1.7750     0.4260 c          1 GYC       0.713000
     21 O           -3.8250     0.9210     1.2950 o          1 GYC      -0.715500
     22 OXT         -4.5750     2.8020     0.5580 o          1 GYC      -0.715500
     23 HN1         -0.9450    -2.6150    -1.6140 hn         1 GYC       0.399500
     24 HN2         -2.4600    -3.1550    -1.4200 hn         1 GYC       0.399500
     25 HG1         -2.2150    -4.4650     0.3040 hs         1 GYC       0.177800
     26 HB11        -2.1650    -1.4510     1.7440 h1         1 GYC       0.108700
     27 HB12        -0.8630    -2.4150     1.0350 h1         1 GYC       0.108700
     28 HA1         -3.1570    -1.0500    -0.4340 h1         1 GYC       0.093700
     29 HA31        -3.1820     2.5050    -1.4640 h1         1 GYC       0.046200
     30 HA32        -3.6650     0.8070    -1.4820 h1         1 GYC       0.046200
     31 HB2          1.8970     2.6970    -0.4010 ha         1 GYC       0.185000
     32 HD1          2.4440    -0.9660    -1.0870 ha         1 GYC       0.130500
     33 HD2          3.9580     2.5230     0.9780 ha         1 GYC       0.130500
     34 HE1          4.5620    -2.1530    -0.6320 ha         1 GYC       0.111000
     35 HE2          6.0890     1.3250     1.4180 ha         1 GYC       0.111000
     36 HOH          6.5760    -2.0410     0.2910 ho         1 GYC       0.459000
@<TRIPOS>BOND
     1     1     4 1   
     2     1    23 1   
     3     1    24 1   
     4     2     3 1   
     5     2    25 1   
     6     3     4 1   
     7     3    26 1   
     8     3    27 1   
     9     4     5 1   
    10     4    28 1   
    11     5     6 2   
    12     5     7 1   
    13     6    10 1   
    14     7     8 1   
    15     7    11 1   
    16     8     9 2   
    17     8    10 1   
    18    10    12 2   
    19    11    20 1   
    20    11    29 1   
    21    11    30 1   
    22    12    13 1   
    23    12    31 1   
    24    13    14 ar  
    25    13    15 ar  
    26    14    16 ar  
    27    14    32 1   
    28    15    17 ar  
    29    15    33 1   
    30    16    18 ar  
    31    16    34 1   
    32    17    18 ar  
    33    17    35 1   
    34    18    19 1   
    35    19    36 1   
    36    20    21 1   
    37    20    22 1   
@<TRIPOS>SUBSTRUCTURE
     1 GYC         1 TEMP              0 ****  ****    0 ROOT
