@<TRIPOS>MOLECULE
GYE
   23    23     1     0     0
SMALL
No Charge or Current Charge


@<TRIPOS>ATOM
      1 O3           0.4020    -2.2560     1.1800 oh         1 GYE      -0.710000
      2 C4           1.6850    -0.3610     0.2240 c5         1 GYE       0.102300
      3 C5           1.1490     0.9110    -0.5000 c5         1 GYE       0.359300
      4 O4          -2.0170    -0.2140    -1.4040 oh         1 GYE      -0.719000
      5 C           -3.0220     1.0250     0.4210 c3         1 GYE      -0.123100
      6 O            0.0010     1.2460     0.2760 os         1 GYE      -0.474000
      7 C1          -2.0750    -0.1290     0.0330 c3         1 GYE       0.168300
      8 C2          -0.6460    -0.0060     0.6600 c5         1 GYE       0.184300
      9 C3           0.3520    -1.1550     0.2570 c5         1 GYE       0.142300
     10 O1           2.0530     1.9950    -0.4610 oh         1 GYE      -0.717000
     11 O2           2.7560    -1.0520    -0.4500 oh         1 GYE      -0.712000
     12 H10          1.2370    -2.7410     0.9750 ho         1 GYE       0.519000
     13 H3           1.9960    -0.0950     1.2460 h1         1 GYE       0.067700
     14 H4           0.8510     0.6850    -1.5340 h2         1 GYE       0.051700
     15 H6          -4.0310     0.8520     0.0270 hc         1 GYE       0.045033
     16 H7          -3.0960     1.1080     1.5120 hc         1 GYE       0.045033
     17 H5          -2.6580     1.9820     0.0290 hc         1 GYE       0.045033
     18 H           -2.5120    -1.0560     0.4300 h1         1 GYE       0.039700
     19 H1          -0.7660     0.0120     1.7520 h1         1 GYE       0.070700
     20 H2           0.1200    -1.5250    -0.7530 h1         1 GYE       0.071700
     21 H8           1.4720     2.7810    -0.3530 ho         1 GYE       0.522000
     22 H9           3.4490    -0.3730    -0.6380 ho         1 GYE       0.519000
     23 H11         -2.9440    -0.2940    -1.7260 ho         1 GYE       0.503000
@<TRIPOS>BOND
     1     1     9 1   
     2     1    12 1   
     3     2     3 1   
     4     2     9 1   
     5     2    11 1   
     6     2    13 1   
     7     3     6 1   
     8     3    10 1   
     9     3    14 1   
    10     4     7 1   
    11     4    23 1   
    12     5     7 1   
    13     5    15 1   
    14     5    16 1   
    15     5    17 1   
    16     6     8 1   
    17     7     8 1   
    18     7    18 1   
    19     8     9 1   
    20     8    19 1   
    21     9    20 1   
    22    10    21 1   
    23    11    22 1   
@<TRIPOS>SUBSTRUCTURE
     1 GYE         1 TEMP              0 ****  ****    0 ROOT
