@<TRIPOS>MOLECULE
GYE
   23    23     1     0     0
SMALL
bcc


@<TRIPOS>ATOM
      1 O3           0.2690    -2.0880     1.1650 oh         1 GYE      -0.587800
      2 C4           1.6370    -0.2840     0.1750 c5         1 GYE       0.079100
      3 C5           1.1880     1.0250    -0.4620 c5         1 GYE       0.312900
      4 O4          -2.0120    -0.2930    -1.3450 oh         1 GYE      -0.596800
      5 C           -3.0220     0.9250     0.4990 c3         1 GYE      -0.123100
      6 O           -0.1130     1.2460     0.0480 os         1 GYE      -0.427600
      7 C1          -2.0720    -0.1800     0.0610 c3         1 GYE       0.145100
      8 C2          -0.6600     0.0450     0.5760 c5         1 GYE       0.161100
      9 C3           0.3350    -1.0590     0.2160 c5         1 GYE       0.119100
     10 O1           2.0370     2.0580    -0.1110 oh         1 GYE      -0.594800
     11 O2           2.6270    -0.9740    -0.5350 oh         1 GYE      -0.589800
     12 H10          0.7690    -2.8400     0.8340 ho         1 GYE       0.420000
     13 H3           1.9530    -0.0730     1.2090 h1         1 GYE       0.067700
     14 H4           1.1360     0.9200    -1.5560 h2         1 GYE       0.051700
     15 H6          -4.0370     0.7200     0.1530 hc         1 GYE       0.045033
     16 H7          -3.0580     0.9970     1.5870 hc         1 GYE       0.045033
     17 H5          -2.7180     1.8940     0.1020 hc         1 GYE       0.045033
     18 H           -2.4120    -1.1230     0.5150 h1         1 GYE       0.039700
     19 H1          -0.7170     0.1180     1.6720 h1         1 GYE       0.070700
     20 H2           0.1230    -1.4390    -0.7930 h1         1 GYE       0.071700
     21 H8           1.9270     2.7890    -0.7270 ho         1 GYE       0.423000
     22 H9           3.4650    -0.5170    -0.4200 ho         1 GYE       0.420000
     23 H11         -2.8890    -0.5290    -1.6640 ho         1 GYE       0.404000
@<TRIPOS>BOND
     1     1     9 1   
     2     1    12 1   
     3     2     3 1   
     4     2     9 1   
     5     2    11 1   
     6     2    13 1   
     7     3     6 1   
     8     3    10 1   
     9     3    14 1   
    10     4     7 1   
    11     4    23 1   
    12     5     7 1   
    13     5    15 1   
    14     5    16 1   
    15     5    17 1   
    16     6     8 1   
    17     7     8 1   
    18     7    18 1   
    19     8     9 1   
    20     8    19 1   
    21     9    20 1   
    22    10    21 1   
    23    11    22 1   
@<TRIPOS>SUBSTRUCTURE
     1 GYE         1 TEMP              0 ****  ****    0 ROOT
