@<TRIPOS>MOLECULE
GYG
   45    45     1     0     0
SMALL
bcc


@<TRIPOS>ATOM
      1 C2           7.2220    24.9920     9.6810 c6         1 GYG       0.003900
      2 C3           7.6910    26.4130     9.4350 c6         1 GYG      -0.077400
      3 C4           8.6660    26.8150    10.5330 c6         1 GYG       0.204500
      4 C5           9.7950    25.7760    10.6270 c6         1 GYG       0.043700
      5 C11         12.6210    26.9940    12.8230 c3         1 GYG      -0.179100
      6 C6           9.1990    24.3690    10.7940 c6         1 GYG       0.144100
      7 C7          10.2640    23.2790    10.8000 c3         1 GYG       0.174100
      8 C8           9.6720    21.8870    11.0650 c3         1 GYG       0.118100
      9 C9          10.6960    20.7790    10.8690 c3         1 GYG       0.097400
     10 N06          9.1710    28.1510    10.2960 nu         1 GYG      -0.826200
     11 N08         10.6480    29.7450    11.0250 n2         1 GYG      -0.902100
     12 N09          8.9970    28.8890    12.4930 nv         1 GYG      -0.961800
     13 N5          10.6840    26.0940    11.7140 ns         1 GYG      -0.567900
     14 O01          5.0430    25.4070     8.3270 o          1 GYG      -0.681533
     15 O10         12.5210    26.5600    10.4740 o          1 GYG      -0.603100
     16 O7          10.9450    23.3150     9.5670 oh         1 GYG      -0.568800
     17 O8           9.1670    21.9200    12.3850 oh         1 GYG      -0.597800
     18 O9          11.8600    21.0590    11.6120 oh         1 GYG      -0.597800
     19 O6           8.3000    24.1000     9.7380 os         1 GYG      -0.338600
     20 O23          6.9330    24.3550     7.1390 o          1 GYG      -0.681533
     21 O24          5.6600    23.0690     8.8150 o          1 GYG      -0.681533
     22 S02          6.1150    24.3950     8.3650 s6         1 GYG       1.216800
     23 H031         6.6330    24.9560    10.6110 h2         1 GYG       0.045700
     24 H32          8.1800    26.4760     8.4580 hc         1 GYG       0.073200
     25 H31          6.8410    27.0950     9.4300 hc         1 GYG       0.073200
     26 H4           8.1180    26.8080    11.4800 h1         1 GYG       0.046700
     27 H5          10.3740    25.8060     9.7020 h1         1 GYG       0.113700
     28 H111        13.6690    26.7000    12.8270 hc         1 GYG       0.052033
     29 H113        12.5840    28.0850    12.8480 hc         1 GYG       0.052033
     30 H112        12.1460    26.6220    13.7290 hc         1 GYG       0.052033
     31 H6           8.6670    24.3360    11.7580 h1         1 GYG       0.037700
     32 H7          10.9410    23.5100    11.6320 h1         1 GYG       0.048700
     33 H8           8.8700    21.6920    10.3400 h1         1 GYG       0.086700
     34 H92         10.2370    19.8290    11.1780 h1         1 GYG       0.023700
     35 H91         10.9070    20.6820     9.7980 h1         1 GYG       0.023700
     36 H061         9.7280    28.2250     9.4560 hn         1 GYG       0.432800
     37 H081        10.8190    30.3860    11.7910 hn         1 GYG       0.360400
     38 H1           9.2060    29.6280    13.1460 hn         1 GYG       0.393800
     39 H091         8.0100    28.6890    12.4580 hn         1 GYG       0.393800
     40 HN5         10.2790    26.1480    12.6360 hn         1 GYG       0.305500
     41 HO7         11.8450    23.0100     9.7110 ho         1 GYG       0.396000
     42 HO8          8.6160    21.1440    12.5210 ho         1 GYG       0.399000
     43 HO9         12.5060    20.3700    11.4350 ho         1 GYG       0.392000
     44 C07          9.6550    28.9770    11.2870 c2         1 GYG       0.786100
     45 C10         11.9530    26.5240    11.5560 c          1 GYG       0.673100
@<TRIPOS>BOND
     1     1     2 1   
     2     1    19 1   
     3     1    22 1   
     4     1    23 1   
     5     2     3 1   
     6     2    24 1   
     7     2    25 1   
     8     3     4 1   
     9     3    10 1   
    10     3    26 1   
    11     4     6 1   
    12     4    13 1   
    13     4    27 1   
    14     5    28 1   
    15     5    29 1   
    16     5    30 1   
    17     5    45 1   
    18     6     7 1   
    19     6    19 1   
    20     6    31 1   
    21     7     8 1   
    22     7    16 1   
    23     7    32 1   
    24     8     9 1   
    25     8    17 1   
    26     8    33 1   
    27     9    18 1   
    28     9    34 1   
    29     9    35 1   
    30    10    36 1   
    31    10    44 1   
    32    11    37 1   
    33    11    44 2   
    34    12    38 1   
    35    12    39 1   
    36    12    44 1   
    37    13    40 1   
    38    13    45 1   
    39    14    22 1   
    40    15    45 2   
    41    16    41 1   
    42    17    42 1   
    43    18    43 1   
    44    20    22 1   
    45    21    22 1   
@<TRIPOS>SUBSTRUCTURE
     1 GYG         1 TEMP              0 ****  ****    0 ROOT
