@<TRIPOS>MOLECULE
GYG
   45    45     1     0     0
SMALL
No Charge or Current Charge


@<TRIPOS>ATOM
      1 C2           7.1710    25.0980     9.8370 c6         1 GYG      -0.083700
      2 C3           7.6520    26.5770     9.7670 c6         1 GYG      -0.077400
      3 C4           8.7330    26.8440    10.8430 c6         1 GYG       0.204500
      4 C5           9.8950    25.8150    10.7110 c6         1 GYG       0.043700
      5 C11         13.2120    26.2420    12.6650 c3         1 GYG      -0.179100
      6 C6           9.2880    24.3790    10.8230 c6         1 GYG       0.167300
      7 C7          10.3520    23.2220    10.7380 c3         1 GYG       0.197300
      8 C8           9.7280    21.7910    10.8580 c3         1 GYG       0.141300
      9 C9          10.7800    20.6460    10.8590 c3         1 GYG       0.120600
     10 N06          9.2530    28.2160    10.7160 nu         1 GYG      -0.881400
     11 N08          9.9710    29.7570    12.0450 n2         1 GYG      -0.902100
     12 N09          7.9720    29.7490    11.0890 nv         1 GYG      -1.072200
     13 N5          10.9700    26.0850    11.6990 ns         1 GYG      -0.500900
     14 O01          4.7800    25.6460     8.8370 o          1 GYG      -0.681533
     15 O10         12.7290    25.2980    10.4950 o          1 GYG      -0.603100
     16 O7          11.1510    23.3140     9.5360 oh         1 GYG      -0.691000
     17 O8           8.9750    21.6600    12.0790 oh         1 GYG      -0.660000
     18 O9          11.5010    20.6280    12.1080 oh         1 GYG      -0.720000
     19 O6           8.3240    24.2060     9.7530 os         1 GYG      -0.385000
     20 O23          6.5370    24.9280     7.2570 o          1 GYG      -0.681533
     21 O24          5.5180    23.2910     8.8040 o          1 GYG      -0.681533
     22 S02          5.8700    24.6980     8.5500 s6         1 GYG       1.327600
     23 H031         6.6400    24.9230    10.7820 h2         1 GYG       0.045700
     24 H32          8.0570    26.7910     8.7680 hc         1 GYG       0.073200
     25 H31          6.8000    27.2530     9.9170 hc         1 GYG       0.073200
     26 H4           8.2730    26.7130    11.8360 h1         1 GYG       0.046700
     27 H5          10.3220    25.9230     9.7030 h1         1 GYG       0.113700
     28 H111        14.2670    26.0170    12.4750 hc         1 GYG       0.052033
     29 H113        13.0560    27.3060    12.8770 hc         1 GYG       0.052033
     30 H112        12.8560    25.7670    13.5860 hc         1 GYG       0.052033
     31 H6           8.7640    24.2880    11.7850 h1         1 GYG       0.037700
     32 H7          11.0110    23.3410    11.6080 h1         1 GYG       0.048700
     33 H8           9.0680    21.6450     9.9910 h1         1 GYG       0.086700
     34 H92         10.2600    19.6890    10.7130 h1         1 GYG       0.023700
     35 H91         11.4710    20.7700    10.0150 h1         1 GYG       0.023700
     36 H061        10.2510    28.2610    10.5550 hn         1 GYG       0.488000
     37 H081         9.6280    30.6500    12.4130 hn         1 GYG       0.360400
     38 H1           8.2070    30.7000    10.8510 hn         1 GYG       0.449000
     39 H091         7.7090    29.2050    10.2830 hn         1 GYG       0.449000
     40 HN5         10.7190    26.5440    12.5690 hn         1 GYG       0.305500
     41 HO7         11.8140    24.0330     9.7200 ho         1 GYG       0.495000
     42 HO8          9.6180    21.2440    12.7000 ho         1 GYG       0.438000
     43 HO9         12.1990    19.9340    12.0300 ho         1 GYG       0.491000
     44 C07          8.9920    29.1430    11.6050 c2         1 GYG       0.786100
     45 C10         12.3080    25.8290    11.5130 c          1 GYG       0.606100
@<TRIPOS>BOND
     1     1     2 1   
     2     1    19 1   
     3     1    22 1   
     4     1    23 1   
     5     2     3 1   
     6     2    24 1   
     7     2    25 1   
     8     3     4 1   
     9     3    10 1   
    10     3    26 1   
    11     4     6 1   
    12     4    13 1   
    13     4    27 1   
    14     5    28 1   
    15     5    29 1   
    16     5    30 1   
    17     5    45 1   
    18     6     7 1   
    19     6    19 1   
    20     6    31 1   
    21     7     8 1   
    22     7    16 1   
    23     7    32 1   
    24     8     9 1   
    25     8    17 1   
    26     8    33 1   
    27     9    18 1   
    28     9    34 1   
    29     9    35 1   
    30    10    36 1   
    31    10    44 1   
    32    11    37 1   
    33    11    44 2   
    34    12    38 1   
    35    12    39 1   
    36    12    44 1   
    37    13    40 1   
    38    13    45 1   
    39    14    22 1   
    40    15    45 2   
    41    16    41 1   
    42    17    42 1   
    43    18    43 1   
    44    20    22 1   
    45    21    22 1   
@<TRIPOS>SUBSTRUCTURE
     1 GYG         1 TEMP              0 ****  ****    0 ROOT
