@<TRIPOS>MOLECULE
GYI
   63    64     1     0     0
SMALL
abcg2


@<TRIPOS>ATOM
      1 C12         -4.7610     0.1050    12.5800 c3         1 GYI       0.151600
      2 C13         -5.0890     1.5840    12.5570 c3         1 GYI      -0.078400
      3 C14         -4.2300     2.4250    13.4780 c3         1 GYI       0.166600
      4 O15         -2.9150     2.4470    12.9470 os         1 GYI      -0.366100
      5 C16         -1.9500     3.1400    13.5850 ca         1 GYI       0.146100
      6 C26          3.5230    -1.6110    11.0690 c3         1 GYI      -0.274700
      7 C29          0.2710     4.0330    13.4940 ca         1 GYI      -0.052000
      8 C30          0.1310     4.5640    14.7700 ca         1 GYI      -0.145000
      9 C31         -1.0600     4.3780    15.4510 ca         1 GYI      -0.069000
     10 C32         -2.1020     3.6720    14.8640 ca         1 GYI      -0.199000
     11 C01         -1.3160    -1.6020    14.0340 c3         1 GYI      -0.087100
     12 C03         -3.6880    -2.2460    14.5320 ca         1 GYI       0.185300
     13 N04         -3.5050    -3.5630    14.6920 nb         1 GYI      -0.275000
     14 C05         -4.5100    -4.3570    14.3450 ca         1 GYI       0.404900
     15 N06         -4.3050    -5.6970    14.4420 nv         1 GYI      -1.045900
     16 N07         -5.6990    -3.9690    13.8800 nb         1 GYI      -0.324000
     17 C08         -5.8880    -2.6660    13.7230 ca         1 GYI       0.398900
     18 N09         -7.0750    -2.2490    13.2390 nv         1 GYI      -1.064900
     19 C10         -4.8680    -1.7380    14.0350 ca         1 GYI      -0.135900
     20 O11         -5.0990    -0.4030    13.8710 os         1 GYI      -0.353100
     21 C17         -0.7490     3.3190    12.8790 ca         1 GYI      -0.119300
     22 C19         -0.4430     1.2960    11.3250 c3         1 GYI      -0.158400
     23 C20          0.8670     0.7470    11.8360 c          1 GYI       0.634100
     24 O21          1.7280     1.4030    12.3670 o          1 GYI      -0.533100
     25 N22          0.9940    -0.6130    11.6110 ns         1 GYI      -0.593300
     26 S23          2.1600    -1.6440    12.2500 s6         1 GYI       1.182800
     27 O24          2.6040    -1.1270    13.5300 o          1 GYI      -0.519500
     28 O25          1.5440    -2.9610    12.1940 o          1 GYI      -0.519500
     29 C27          4.1920    -0.2500    11.0040 c3         1 GYI      -0.074600
     30 C28          3.0550    -2.1020     9.7090 c3         1 GYI      -0.074600
     31 H121        -3.6990    -0.0690    12.3730 h1         1 GYI       0.037200
     32 H122        -5.3340    -0.4160    11.8060 h1         1 GYI       0.037200
     33 H132        -4.9940     1.9500    11.5320 hc         1 GYI       0.058700
     34 H131        -6.1360     1.7240    12.8370 hc         1 GYI       0.058700
     35 H142        -4.6240     3.4450    13.5390 h1         1 GYI       0.043200
     36 H141        -4.2360     2.0100    14.4910 h1         1 GYI       0.043200
     37 H181         0.2660     3.2980    11.0090 hc         1 GYI       0.052200
     38 H182        -1.4610     3.1030    10.8790 hc         1 GYI       0.052200
     39 H261         4.2130    -2.3390    11.5100 h1         1 GYI       0.100700
     40 H291         1.1950     4.1870    12.9510 ha         1 GYI       0.121000
     41 H301         0.9430     5.1190    15.2210 ha         1 GYI       0.117000
     42 H311        -1.1930     4.7860    16.4450 ha         1 GYI       0.111000
     43 H321        -3.0260     3.5500    15.4130 ha         1 GYI       0.116000
     44 H012        -0.4910    -0.9570    14.3350 hc         1 GYI       0.039033
     45 H011        -0.9760    -2.6340    14.0940 hc         1 GYI       0.039033
     46 H013        -1.5450    -1.3840    12.9900 hc         1 GYI       0.039033
     47 H021        -2.2760    -1.5880    15.9590 hc         1 GYI       0.062700
     48 H022        -2.8230    -0.3160    14.8840 hc         1 GYI       0.062700
     49 H062        -3.5410    -6.0030    15.0200 hn         1 GYI       0.484500
     50 H061        -5.1180    -6.2900    14.4490 hn         1 GYI       0.484500
     51 H092        -7.8280    -2.9160    13.2030 hn         1 GYI       0.489000
     52 H091        -7.3420    -1.2850    13.3460 hn         1 GYI       0.489000
     53 H191        -1.2600     0.7670    11.8250 hc         1 GYI       0.068700
     54 H192        -0.5280     1.0240    10.2680 hc         1 GYI       0.068700
     55 H221         0.2360    -1.0960    11.1420 hn         1 GYI       0.338500
     56 H272         5.0960    -0.3470    10.4020 hc         1 GYI       0.051367
     57 H271         3.5550     0.4900    10.5220 hc         1 GYI       0.051367
     58 H273         4.4860     0.1200    11.9830 hc         1 GYI       0.051367
     59 H283         3.9170    -2.1460     9.0440 hc         1 GYI       0.051367
     60 H281         2.6190    -3.0980     9.7540 hc         1 GYI       0.051367
     61 H282         2.3320    -1.4170     9.2650 hc         1 GYI       0.051367
     62 C18         -0.5920     2.8070    11.4720 c3         1 GYI       0.000900
     63 C02         -2.5360    -1.3660    14.9200 c3         1 GYI      -0.131700
@<TRIPOS>BOND
     1     1     2 1   
     2     1    20 1   
     3     1    31 1   
     4     1    32 1   
     5     2     3 1   
     6     2    33 1   
     7     2    34 1   
     8     3     4 1   
     9     3    35 1   
    10     3    36 1   
    11     4     5 1   
    12     5    10 ar  
    13     5    21 ar  
    14     6    26 1   
    15     6    29 1   
    16     6    30 1   
    17     6    39 1   
    18     7     8 ar  
    19     7    21 ar  
    20     7    40 1   
    21     8     9 ar  
    22     8    41 1   
    23     9    10 ar  
    24     9    42 1   
    25    10    43 1   
    26    11    44 1   
    27    11    45 1   
    28    11    46 1   
    29    11    63 1   
    30    12    13 ar  
    31    12    19 ar  
    32    12    63 1   
    33    13    14 ar  
    34    14    15 1   
    35    14    16 ar  
    36    15    49 1   
    37    15    50 1   
    38    16    17 ar  
    39    17    18 1   
    40    17    19 ar  
    41    18    51 1   
    42    18    52 1   
    43    19    20 1   
    44    21    62 1   
    45    22    23 1   
    46    22    53 1   
    47    22    54 1   
    48    22    62 1   
    49    23    24 2   
    50    23    25 1   
    51    25    26 1   
    52    25    55 1   
    53    26    27 2   
    54    26    28 2   
    55    29    56 1   
    56    29    57 1   
    57    29    58 1   
    58    30    59 1   
    59    30    60 1   
    60    30    61 1   
    61    37    62 1   
    62    38    62 1   
    63    47    63 1   
    64    48    63 1   
@<TRIPOS>SUBSTRUCTURE
     1 GYI         1 TEMP              0 ****  ****    0 ROOT
