@<TRIPOS>MOLECULE
GYI
   63    64     1     0     0
SMALL
No Charge or Current Charge


@<TRIPOS>ATOM
      1 C12         -5.4270     0.5860    12.6940 c3         1 GYI       0.151600
      2 C13         -5.6310     2.0690    13.0700 c3         1 GYI      -0.078400
      3 C14         -4.3860     2.7470    13.6830 c3         1 GYI       0.166600
      4 O15         -3.2830     2.5650    12.7770 os         1 GYI      -0.366100
      5 C16         -1.9970     2.9600    13.0880 ca         1 GYI       0.146100
      6 C26          3.0270    -1.6140    11.2010 c3         1 GYI      -0.274700
      7 C29          0.3890     2.8850    12.5850 ca         1 GYI      -0.052000
      8 C30          0.6460     3.7470    13.6640 ca         1 GYI      -0.145000
      9 C31         -0.4110     4.2140    14.4590 ca         1 GYI      -0.069000
     10 C32         -1.7300     3.8240    14.1730 ca         1 GYI      -0.199000
     11 C01         -1.5860    -0.7600    16.5870 c3         1 GYI      -0.087100
     12 C03         -3.1160    -1.4600    14.5910 ca         1 GYI       0.185300
     13 N04         -2.3530    -2.5710    14.4930 nb         1 GYI      -0.275000
     14 C05         -2.7550    -3.4990    13.6180 ca         1 GYI       0.404900
     15 N06         -1.9880    -4.6090    13.5290 nv         1 GYI      -1.045900
     16 N07         -3.8310    -3.4710    12.8270 nb         1 GYI      -0.324000
     17 C08         -4.5860    -2.3710    12.9120 ca         1 GYI       0.398900
     18 N09         -5.6990    -2.4140    12.1310 nv         1 GYI      -1.064900
     19 C10         -4.2680    -1.2990    13.7860 ca         1 GYI      -0.135900
     20 O11         -4.9990    -0.1210    13.8740 os         1 GYI      -0.353100
     21 C17         -0.9300     2.4810    12.2920 ca         1 GYI      -0.119300
     22 C19         -1.4990     0.0740    11.6000 c3         1 GYI      -0.158400
     23 C20         -0.2760    -0.6270    12.1980 c          1 GYI       0.634100
     24 O21          0.1490    -0.3620    13.3090 o          1 GYI      -0.533100
     25 N22          0.2730    -1.5760    11.3930 ns         1 GYI      -0.593300
     26 S23          1.5650    -2.5950    11.7030 s6         1 GYI       1.182800
     27 O24          1.6430    -2.8490    13.1460 o          1 GYI      -0.519500
     28 O25          1.4390    -3.7210    10.7720 o          1 GYI      -0.519500
     29 C27          3.2720    -0.3820    12.1120 c3         1 GYI      -0.074600
     30 C28          2.9830    -1.2190     9.7000 c3         1 GYI      -0.074600
     31 H121        -4.6690     0.5160    11.9040 h1         1 GYI       0.037200
     32 H122        -6.3680     0.1780    12.3060 h1         1 GYI       0.037200
     33 H132        -5.9310     2.6220    12.1730 hc         1 GYI       0.058700
     34 H131        -6.4630     2.1480    13.7790 hc         1 GYI       0.058700
     35 H142        -4.5930     3.8130    13.8390 h1         1 GYI       0.043200
     36 H141        -4.1630     2.2900    14.6560 h1         1 GYI       0.043200
     37 H181        -0.3200     1.4910    10.4520 hc         1 GYI       0.052200
     38 H182        -2.0220     1.8810    10.5300 hc         1 GYI       0.052200
     39 H261         3.8600    -2.3110    11.3460 h1         1 GYI       0.100700
     40 H291         1.2190     2.5250    11.9810 ha         1 GYI       0.121000
     41 H301         1.6670     4.0500    13.8850 ha         1 GYI       0.117000
     42 H311        -0.2090     4.8810    15.2940 ha         1 GYI       0.111000
     43 H321        -2.5300     4.2070    14.7990 ha         1 GYI       0.116000
     44 H012        -1.3570     0.0850    17.2470 hc         1 GYI       0.039033
     45 H011        -1.9400    -1.5920    17.2090 hc         1 GYI       0.039033
     46 H013        -0.6560    -1.0630    16.0920 hc         1 GYI       0.039033
     47 H021        -3.5290     0.0290    16.0980 hc         1 GYI       0.062700
     48 H022        -2.2740     0.4890    14.9660 hc         1 GYI       0.062700
     49 H062        -1.2840    -4.7690    14.2440 hn         1 GYI       0.484500
     50 H061        -2.3660    -5.4260    13.0570 hn         1 GYI       0.484500
     51 H092        -5.9490    -3.3100    11.7210 hn         1 GYI       0.489000
     52 H091        -6.4730    -1.8070    12.3820 hn         1 GYI       0.489000
     53 H191        -2.2840     0.1180    12.3580 hc         1 GYI       0.068700
     54 H192        -1.8630    -0.4890    10.7330 hc         1 GYI       0.068700
     55 H221        -0.1380    -1.7620    10.4950 hn         1 GYI       0.338500
     56 H272         4.2250     0.1000    11.8570 hc         1 GYI       0.051367
     57 H271         2.4790     0.3650    11.9920 hc         1 GYI       0.051367
     58 H273         3.3180    -0.6700    13.1690 hc         1 GYI       0.051367
     59 H283         3.9110    -0.7110     9.4100 hc         1 GYI       0.051367
     60 H281         2.8750    -2.1030     9.0600 hc         1 GYI       0.051367
     61 H282         2.1480    -0.5380     9.4920 hc         1 GYI       0.051367
     62 C18         -1.1810     1.5150    11.1320 c3         1 GYI       0.000900
     63 C02         -2.6600    -0.3540    15.5500 c3         1 GYI      -0.131700
@<TRIPOS>BOND
     1     1     2 1   
     2     1    20 1   
     3     1    31 1   
     4     1    32 1   
     5     2     3 1   
     6     2    33 1   
     7     2    34 1   
     8     3     4 1   
     9     3    35 1   
    10     3    36 1   
    11     4     5 1   
    12     5    10 ar  
    13     5    21 ar  
    14     6    26 1   
    15     6    29 1   
    16     6    30 1   
    17     6    39 1   
    18     7     8 ar  
    19     7    21 ar  
    20     7    40 1   
    21     8     9 ar  
    22     8    41 1   
    23     9    10 ar  
    24     9    42 1   
    25    10    43 1   
    26    11    44 1   
    27    11    45 1   
    28    11    46 1   
    29    11    63 1   
    30    12    13 ar  
    31    12    19 ar  
    32    12    63 1   
    33    13    14 ar  
    34    14    15 1   
    35    14    16 ar  
    36    15    49 1   
    37    15    50 1   
    38    16    17 ar  
    39    17    18 1   
    40    17    19 ar  
    41    18    51 1   
    42    18    52 1   
    43    19    20 1   
    44    21    62 1   
    45    22    23 1   
    46    22    53 1   
    47    22    54 1   
    48    22    62 1   
    49    23    24 2   
    50    23    25 1   
    51    25    26 1   
    52    25    55 1   
    53    26    27 2   
    54    26    28 2   
    55    29    56 1   
    56    29    57 1   
    57    29    58 1   
    58    30    59 1   
    59    30    60 1   
    60    30    61 1   
    61    37    62 1   
    62    38    62 1   
    63    47    63 1   
    64    48    63 1   
@<TRIPOS>SUBSTRUCTURE
     1 GYI         1 TEMP              0 ****  ****    0 ROOT
