@<TRIPOS>MOLECULE
GYK
   46    49     1     0     0
SMALL
abcg2


@<TRIPOS>ATOM
      1 C01         -1.3130     3.1750     2.2660 c3         1 GYK      -0.119100
      2 C02         -1.6710     1.9460     1.4380 c3         1 GYK       0.118700
      3 C03         -1.3170     0.6630     2.1870 c3         1 GYK      -0.047100
      4 C04         -1.3570    -0.5450     1.3010 ca         1 GYK      -0.038300
      5 C05         -2.3420    -1.5270     1.4640 ca         1 GYK      -0.098000
      6 C06         -2.3140    -2.6000     0.6080 ca         1 GYK       0.069100
      7 C07         -1.3490    -2.7280    -0.3790 ca         1 GYK       0.042100
      8 C08         -0.3660    -1.7910    -0.5510 ca         1 GYK      -0.067000
      9 C09         -0.3860    -0.6800     0.3090 ca         1 GYK      -0.163900
     10 C10          0.6220     0.3860     0.1280 ce         1 GYK       0.537500
     11 N11          0.3290     1.6350     0.0580 n2         1 GYK      -0.514300
     12 N12         -1.0310     1.9460     0.1180 n          1 GYK      -0.188800
     13 C13         -1.4710     2.8720    -0.8080 c          1 GYK       0.651100
     14 O14         -2.5840     3.3810    -0.7260 o          1 GYK      -0.642100
     15 N15         -0.6310     3.1240    -1.8310 ns         1 GYK      -0.509900
     16 C16         -0.9670     4.0770    -2.8580 c3         1 GYK       0.108300
     17 C17          2.0360     0.0130     0.0010 ca         1 GYK      -0.207900
     18 C18          2.9480     0.8370    -0.6690 ca         1 GYK      -0.027000
     19 C19          4.2770     0.4940    -0.7870 ca         1 GYK      -0.199500
     20 C20          4.7660    -0.6940    -0.2160 ca         1 GYK       0.330000
     21 C21          3.8590    -1.5160     0.4670 ca         1 GYK      -0.199500
     22 C22          2.5260    -1.1680     0.5650 ca         1 GYK      -0.027000
     23 N23          6.0910    -1.0140    -0.2890 nv         1 GYK      -1.087000
     24 O24         -1.5510    -3.8850    -1.0560 os         1 GYK      -0.344100
     25 C25         -2.7990    -4.3930    -0.6080 c5         1 GYK       0.374600
     26 O26         -3.1400    -3.6680     0.5700 os         1 GYK      -0.342100
     27 H1          -0.2340     3.2450     2.4160 hc         1 GYK       0.046700
     28 H2          -1.6550     4.0910     1.7860 hc         1 GYK       0.046700
     29 H3          -1.7840     3.1180     3.2480 hc         1 GYK       0.046700
     30 H4          -2.7440     1.9390     1.2480 h1         1 GYK       0.089700
     31 H5          -0.3220     0.7580     2.6350 hc         1 GYK       0.059700
     32 H6          -2.0160     0.5560     3.0180 hc         1 GYK       0.059700
     33 H7          -3.0930    -1.4390     2.2380 ha         1 GYK       0.136000
     34 H8           0.3840    -1.8940    -1.3230 ha         1 GYK       0.141000
     35 H11          0.3100     2.7720    -1.7820 hn         1 GYK       0.328500
     36 H12         -1.8960     3.8100    -3.3630 h1         1 GYK       0.036367
     37 H13         -1.0710     5.0930    -2.4720 h1         1 GYK       0.036367
     38 H14         -0.1710     4.0760    -3.5970 h1         1 GYK       0.036367
     39 H15          2.6050     1.7590    -1.1220 ha         1 GYK       0.120000
     40 H16          4.9530     1.1430    -1.3300 ha         1 GYK       0.115500
     41 H17          4.2060    -2.4360     0.9220 ha         1 GYK       0.115500
     42 H18          1.8600    -1.8270     1.1060 ha         1 GYK       0.120000
     43 H19          6.3450    -1.9740    -0.1280 hn         1 GYK       0.463000
     44 H20          6.6360    -0.5720    -1.0110 hn         1 GYK       0.463000
     45 H21         -3.5650    -4.2340    -1.3730 h2         1 GYK       0.066200
     46 H9          -2.7050    -5.4530    -0.3730 h2         1 GYK       0.066200
@<TRIPOS>BOND
     1     1     2 1   
     2     1    27 1   
     3     1    28 1   
     4     1    29 1   
     5     2     3 1   
     6     2    12 1   
     7     2    30 1   
     8     3     4 1   
     9     3    31 1   
    10     3    32 1   
    11     4     5 ar  
    12     4     9 ar  
    13     5     6 ar  
    14     5    33 1   
    15     6     7 ar  
    16     6    26 1   
    17     7     8 ar  
    18     7    24 1   
    19     8     9 ar  
    20     8    34 1   
    21     9    10 1   
    22    10    11 2   
    23    10    17 1   
    24    11    12 1   
    25    12    13 1   
    26    13    14 2   
    27    13    15 1   
    28    15    16 1   
    29    15    35 1   
    30    16    36 1   
    31    16    37 1   
    32    16    38 1   
    33    17    18 ar  
    34    17    22 ar  
    35    18    19 ar  
    36    18    39 1   
    37    19    20 ar  
    38    19    40 1   
    39    20    21 ar  
    40    20    23 1   
    41    21    22 ar  
    42    21    41 1   
    43    22    42 1   
    44    23    43 1   
    45    23    44 1   
    46    24    25 1   
    47    25    26 1   
    48    25    45 1   
    49    25    46 1   
@<TRIPOS>SUBSTRUCTURE
     1 GYK         1 TEMP              0 ****  ****    0 ROOT
