@<TRIPOS>MOLECULE
GYK
   46    49     1     0     0
SMALL
No Charge or Current Charge


@<TRIPOS>ATOM
      1 C01         -1.6110     3.2470     2.5730 c3         1 GYK      -0.119100
      2 C02         -1.7330     2.0540     1.6000 c3         1 GYK       0.118700
      3 C03         -1.4470     0.7180     2.3290 c3         1 GYK      -0.047100
      4 C04         -1.4160    -0.4570     1.3560 ca         1 GYK      -0.038300
      5 C05         -2.4330    -1.4370     1.4220 ca         1 GYK      -0.098000
      6 C06         -2.3950    -2.5000     0.5160 ca         1 GYK       0.069100
      7 C07         -1.4140    -2.6020    -0.4270 ca         1 GYK       0.042100
      8 C08         -0.3930    -1.6520    -0.5290 ca         1 GYK      -0.067000
      9 C09         -0.3720    -0.5700     0.3880 ca         1 GYK      -0.163900
     10 C10          0.7040     0.4770     0.2610 ce         1 GYK       0.537500
     11 N11          0.4490     1.7480     0.4030 n2         1 GYK      -0.514300
     12 N12         -0.8570     2.2370     0.4110 n          1 GYK      -0.188800
     13 C13         -1.3810     2.9180    -0.7300 c          1 GYK       0.651100
     14 O14         -2.5230     3.3540    -0.7910 o          1 GYK      -0.642100
     15 N15         -0.5030     3.0570    -1.7770 ns         1 GYK      -0.509900
     16 C16         -0.8100     3.7120    -3.0480 c3         1 GYK       0.108300
     17 C17          2.1160     0.0410    -0.0080 ca         1 GYK      -0.207900
     18 C18          3.0360     0.9160    -0.6290 ca         1 GYK      -0.027000
     19 C19          4.3680     0.5200    -0.8390 ca         1 GYK      -0.199500
     20 C20          4.8040    -0.7400    -0.4150 ca         1 GYK       0.330000
     21 C21          3.9120    -1.6040     0.2310 ca         1 GYK      -0.199500
     22 C22          2.5780    -1.2160     0.4440 ca         1 GYK      -0.027000
     23 N23          6.0990    -1.1210    -0.6200 nv         1 GYK      -1.087000
     24 O24         -1.5750    -3.6860    -1.2270 os         1 GYK      -0.344100
     25 C25         -2.7440    -4.3560    -0.6330 c5         1 GYK       0.374600
     26 O26         -3.3000    -3.5080     0.4340 os         1 GYK      -0.342100
     27 H1          -0.5850     3.3380     2.9510 hc         1 GYK       0.046700
     28 H2          -1.8740     4.1840     2.0690 hc         1 GYK       0.046700
     29 H3          -2.2850     3.1200     3.4290 hc         1 GYK       0.046700
     30 H4          -2.7750     2.0040     1.2550 h1         1 GYK       0.089700
     31 H5          -0.4900     0.7840     2.8610 hc         1 GYK       0.059700
     32 H6          -2.2100     0.5650     3.1020 hc         1 GYK       0.059700
     33 H7          -3.2350    -1.3720     2.1530 ha         1 GYK       0.136000
     34 H8           0.3620    -1.7510    -1.3060 ha         1 GYK       0.141000
     35 H11          0.4240     2.6800    -1.6200 hn         1 GYK       0.328500
     36 H12         -1.6440     3.1940    -3.5380 h1         1 GYK       0.036367
     37 H13         -1.0860     4.7590    -2.8660 h1         1 GYK       0.036367
     38 H14          0.0720     3.6780    -3.7000 h1         1 GYK       0.036367
     39 H15          2.7220     1.9040    -0.9620 ha         1 GYK       0.120000
     40 H16          5.0590     1.2000    -1.3290 ha         1 GYK       0.115500
     41 H17          4.2500    -2.5760     0.5780 ha         1 GYK       0.115500
     42 H18          1.9120    -1.8960     0.9710 ha         1 GYK       0.120000
     43 H19          6.3670    -2.0910    -0.4620 hn         1 GYK       0.463000
     44 H20          6.6960    -0.5660    -1.2300 hn         1 GYK       0.463000
     45 H21         -3.5040    -4.5260    -1.4040 h2         1 GYK       0.066200
     46 H9          -2.4260    -5.3120    -0.2010 h2         1 GYK       0.066200
@<TRIPOS>BOND
     1     1     2 1   
     2     1    27 1   
     3     1    28 1   
     4     1    29 1   
     5     2     3 1   
     6     2    12 1   
     7     2    30 1   
     8     3     4 1   
     9     3    31 1   
    10     3    32 1   
    11     4     5 ar  
    12     4     9 ar  
    13     5     6 ar  
    14     5    33 1   
    15     6     7 ar  
    16     6    26 1   
    17     7     8 ar  
    18     7    24 1   
    19     8     9 ar  
    20     8    34 1   
    21     9    10 1   
    22    10    11 2   
    23    10    17 1   
    24    11    12 1   
    25    12    13 1   
    26    13    14 2   
    27    13    15 1   
    28    15    16 1   
    29    15    35 1   
    30    16    36 1   
    31    16    37 1   
    32    16    38 1   
    33    17    18 ar  
    34    17    22 ar  
    35    18    19 ar  
    36    18    39 1   
    37    19    20 ar  
    38    19    40 1   
    39    20    21 ar  
    40    20    23 1   
    41    21    22 ar  
    42    21    41 1   
    43    22    42 1   
    44    23    43 1   
    45    23    44 1   
    46    24    25 1   
    47    25    26 1   
    48    25    45 1   
    49    25    46 1   
@<TRIPOS>SUBSTRUCTURE
     1 GYK         1 TEMP              0 ****  ****    0 ROOT
