@<TRIPOS>MOLECULE
GYL
   43    45     1     0     0
SMALL
bcc


@<TRIPOS>ATOM
      1 C1          -5.5350     0.2070     0.9010 ca         1 GYL       0.060400
      2 C2          -4.6760     0.2500    -0.1960 ca         1 GYL      -0.146300
      3 C3          -5.1780    -0.2660    -1.3850 ca         1 GYL       0.172900
      4 C4          -6.4540    -0.7720    -1.5190 ca         1 GYL      -0.172000
      5 C5          -7.2780    -0.7800    -0.4040 ca         1 GYL      -0.081000
      6 C6          -6.8250    -0.2950     0.8120 ca         1 GYL      -0.142000
      7 C37          8.0320     2.6600    -1.1970 c3         1 GYL      -0.077100
      8 C38          7.7160     1.2130    -0.8630 c3         1 GYL      -0.159400
      9 C33          6.2450     0.9650    -0.6020 c          1 GYL       0.670100
     10 O35          5.3730     1.7330    -0.9650 o          1 GYL      -0.572100
     11 C24          4.7880    -0.7970     0.4030 ca         1 GYL       0.065600
     12 C25          3.5380    -0.2550     0.1160 ca         1 GYL      -0.125000
     13 C23          4.8620    -2.0160     1.0850 ca         1 GYL      -0.180000
     14 C28          3.7080    -2.6730     1.4710 ca         1 GYL      -0.113000
     15 C27          2.4600    -2.1360     1.1860 ca         1 GYL      -0.119000
     16 C26          2.3780    -0.9250     0.5070 ca         1 GYL      -0.094500
     17 C19          1.0670    -0.3480     0.1990 cc         1 GYL       0.610500
     18 N18         -0.0980    -0.9580     0.5280 nc         1 GYL      -0.758000
     19 N20          0.9250     0.7990    -0.4190 nd         1 GYL      -0.525800
     20 N21         -0.4140     0.9330    -0.4890 na         1 GYL      -0.190400
     21 C17         -1.0140    -0.1260     0.0750 cd         1 GYL       0.675400
     22 N15         -2.3530    -0.3220     0.1240 nu         1 GYL      -0.853900
     23 C8          -3.2710     0.7730    -0.1260 c3         1 GYL       0.267100
     24 CL7         -4.9870     0.7810     2.4400 cl         1 GYL      -0.096400
     25 F9          -4.3760    -0.2640    -2.4570 f          1 GYL      -0.129900
     26 H1          -6.7930    -1.1520    -2.4740 ha         1 GYL       0.160000
     27 H2          -8.2820    -1.1730    -0.4820 ha         1 GYL       0.145000
     28 H3          -7.4650    -0.3100     1.6830 ha         1 GYL       0.156000
     29 H4           9.0950     2.7680    -1.4080 hc         1 GYL       0.044033
     30 H5           7.4830     2.9990    -2.0740 hc         1 GYL       0.044033
     31 H6           7.7880     3.3250    -0.3690 hc         1 GYL       0.044033
     32 H7           8.0140     0.5630    -1.6930 hc         1 GYL       0.055700
     33 H8           8.3050     0.8810    -0.0040 hc         1 GYL       0.055700
     34 H9           6.8190    -0.7370     0.3070 hn         1 GYL       0.311500
     35 H10          3.4540     0.6810    -0.4120 ha         1 GYL       0.181000
     36 H11          5.8290    -2.4500     1.3120 ha         1 GYL       0.124000
     37 H12          3.7840    -3.6140     1.9990 ha         1 GYL       0.131000
     38 H13          1.5590    -2.6530     1.4880 ha         1 GYL       0.154000
     39 H15         -3.0170     1.2380    -1.0790 h1         1 GYL       0.054700
     40 H14         -0.8200     1.7480    -0.9210 hn         1 GYL       0.325700
     41 H16         -2.6390    -0.9980     0.8160 hn         1 GYL       0.448800
     42 H17         -3.1960     1.5560     0.6340 h1         1 GYL       0.054700
     43 N34          6.0020    -0.2040     0.0500 ns         1 GYL      -0.477100
@<TRIPOS>BOND
     1     1     2 ar  
     2     1     6 ar  
     3     1    24 1   
     4     2     3 ar  
     5     2    23 1   
     6     3     4 ar  
     7     3    25 1   
     8     4     5 ar  
     9     4    26 1   
    10     5     6 ar  
    11     5    27 1   
    12     6    28 1   
    13     7     8 1   
    14     7    29 1   
    15     7    30 1   
    16     7    31 1   
    17     8     9 1   
    18     8    32 1   
    19     8    33 1   
    20     9    10 2   
    21     9    43 1   
    22    11    12 ar  
    23    11    13 ar  
    24    11    43 1   
    25    12    16 ar  
    26    12    35 1   
    27    13    14 ar  
    28    13    36 1   
    29    14    15 ar  
    30    14    37 1   
    31    15    16 ar  
    32    15    38 1   
    33    16    17 1   
    34    17    18 1   
    35    17    19 2   
    36    18    21 2   
    37    19    20 1   
    38    20    21 1   
    39    20    40 1   
    40    21    22 1   
    41    22    23 1   
    42    22    41 1   
    43    23    39 1   
    44    23    42 1   
    45    34    43 1   
@<TRIPOS>SUBSTRUCTURE
     1 GYL         1 TEMP              0 ****  ****    0 ROOT
