@<TRIPOS>MOLECULE
GYL
   43    45     1     0     0
SMALL
No Charge or Current Charge


@<TRIPOS>ATOM
      1 C1          -4.3520     0.7380     0.7240 ca         1 GYL       0.152000
      2 C2          -4.5380     0.0790    -0.5150 ca         1 GYL      -0.146300
      3 C3          -5.6720    -0.7470    -0.6810 ca         1 GYL       0.208000
      4 C4          -6.5980    -0.9160     0.3620 ca         1 GYL      -0.154000
      5 C5          -6.4040    -0.2610     1.5910 ca         1 GYL      -0.063000
      6 C6          -5.2800     0.5660     1.7670 ca         1 GYL      -0.124000
      7 C37          7.7640     2.6580     0.8940 c3         1 GYL      -0.077100
      8 C38          7.6500     1.5190    -0.1450 c3         1 GYL      -0.159400
      9 C33          6.1860     1.1350    -0.4100 c          1 GYL       0.603100
     10 O35          5.4500     1.8530    -1.0760 o          1 GYL      -0.572100
     11 C24          4.5760    -0.8000     0.1240 ca         1 GYL      -0.027000
     12 C25          3.3600    -0.2490    -0.3410 ca         1 GYL      -0.107000
     13 C23          4.5830    -2.1120     0.6270 ca         1 GYL      -0.162000
     14 C28          3.4040    -2.8700     0.6550 ca         1 GYL      -0.095000
     15 C27          2.2010    -2.3220     0.1840 ca         1 GYL      -0.101000
     16 C26          2.1580    -1.0000    -0.3200 ca         1 GYL      -0.094500
     17 C19          0.8930    -0.4080    -0.8070 cc         1 GYL       0.610500
     18 N18         -0.2590    -1.1480    -0.8230 nc         1 GYL      -0.758000
     19 N20          0.7990     0.8440    -1.2440 nd         1 GYL      -0.525800
     20 N21         -0.5380     0.9050    -1.5620 na         1 GYL      -0.240700
     21 C17         -1.1200    -0.3020    -1.2880 cd         1 GYL       0.675400
     22 N15         -2.4030    -0.6520    -1.4680 nu         1 GYL      -0.909100
     23 C8          -3.5410     0.2530    -1.6560 c3         1 GYL       0.267100
     24 Cl7         -2.9600     1.7900     1.0100 cl         1 GYL      -0.188000
     25 F9          -5.8850    -1.3960    -1.8500 f          1 GYL      -0.165000
     26 H1          -7.4660    -1.5580     0.2160 ha         1 GYL       0.142000
     27 H2          -7.1190    -0.3930     2.4010 ha         1 GYL       0.127000
     28 H3          -5.1250     1.0760     2.7170 ha         1 GYL       0.138000
     29 H4           8.8170     2.9180     1.0630 hc         1 GYL       0.044033
     30 H5           7.2410     3.5580     0.5460 hc         1 GYL       0.044033
     31 H6           7.3280     2.3540     1.8540 hc         1 GYL       0.044033
     32 H7           8.0990     1.8670    -1.0840 hc         1 GYL       0.055700
     33 H8           8.2070     0.6530     0.2330 hc         1 GYL       0.055700
     34 H9           6.5520    -0.5700     0.6190 hn         1 GYL       0.145000
     35 H10          3.3310     0.7690    -0.7170 ha         1 GYL       0.163000
     36 H11          5.5080    -2.5500     0.9960 ha         1 GYL       0.106000
     37 H12          3.4210    -3.8860     1.0430 ha         1 GYL       0.113000
     38 H13          1.3000    -2.9310     0.2180 ha         1 GYL       0.136000
     39 H15         -4.0280     0.0390    -2.6190 h1         1 GYL       0.054700
     40 H14         -0.9960     1.7250    -1.9420 hn         1 GYL       0.376000
     41 H16         -2.5890    -1.5890    -1.1220 hn         1 GYL       0.504000
     42 H17         -3.2130     1.3010    -1.7020 h1         1 GYL       0.054700
     43 N34          5.8100    -0.0910     0.1270 ns         1 GYL      -0.151000
@<TRIPOS>BOND
     1     1     2 ar  
     2     1     6 ar  
     3     1    24 1   
     4     2     3 ar  
     5     2    23 1   
     6     3     4 ar  
     7     3    25 1   
     8     4     5 ar  
     9     4    26 1   
    10     5     6 ar  
    11     5    27 1   
    12     6    28 1   
    13     7     8 1   
    14     7    29 1   
    15     7    30 1   
    16     7    31 1   
    17     8     9 1   
    18     8    32 1   
    19     8    33 1   
    20     9    10 2   
    21     9    43 1   
    22    11    12 ar  
    23    11    13 ar  
    24    11    43 1   
    25    12    16 ar  
    26    12    35 1   
    27    13    14 ar  
    28    13    36 1   
    29    14    15 ar  
    30    14    37 1   
    31    15    16 ar  
    32    15    38 1   
    33    16    17 1   
    34    17    18 1   
    35    17    19 2   
    36    18    21 2   
    37    19    20 1   
    38    20    21 1   
    39    20    40 1   
    40    21    22 1   
    41    22    23 1   
    42    22    41 1   
    43    23    39 1   
    44    23    42 1   
    45    34    43 1   
@<TRIPOS>SUBSTRUCTURE
     1 GYL         1 TEMP              0 ****  ****    0 ROOT
