@<TRIPOS>MOLECULE
GYM
   55    54     1     0     0
SMALL
No Charge or Current Charge


@<TRIPOS>ATOM
      1 O21          8.8160     0.3980     2.7730 oh         1 GYM      -0.642000
      2 C20          8.2790     0.8960     1.5350 c3         1 GYM       0.128600
      3 C18          7.0260     0.0790     1.1270 c3         1 GYM       0.164300
      4 O19          7.3820    -1.3170     1.0860 oh         1 GYM      -0.626000
      5 C17          6.4510     0.5400    -0.2380 c3         1 GYM       0.128600
      6 O2           5.2050    -0.1480    -0.4790 os         1 GYM      -0.434100
      7 C1           4.5440     0.1080    -1.6510 c          1 GYM       0.592100
      8 O1           4.9230     0.9010    -2.5030 o          1 GYM      -0.492000
      9 C2           3.2340    -0.6780    -1.7490 c3         1 GYM      -0.136400
     10 C3           2.0390     0.1530    -1.2250 c3         1 GYM      -0.068400
     11 C4           0.6960    -0.6080    -1.2980 c3         1 GYM      -0.076400
     12 C5          -0.4970     0.2220    -0.7760 c3         1 GYM      -0.074400
     13 C6          -1.8390    -0.5390    -0.8480 c3         1 GYM      -0.074400
     14 C7          -3.0330     0.2910    -0.3260 c3         1 GYM      -0.074400
     15 C8          -4.3750    -0.4700    -0.3980 c3         1 GYM      -0.074400
     16 C9          -5.5690     0.3590     0.1230 c3         1 GYM      -0.074400
     17 C10         -6.9110    -0.4020     0.0520 c3         1 GYM      -0.074400
     18 C11         -8.1050     0.4270     0.5730 c3         1 GYM      -0.074400
     19 C12         -9.4470    -0.3340     0.5020 c3         1 GYM      -0.075400
     20 C13        -10.6410     0.4950     1.0230 c3         1 GYM      -0.074400
     21 C14        -11.9800    -0.2640     0.9520 c3         1 GYM      -0.088100
     22 H21          9.5740     0.9770     3.0140 ho         1 GYM       0.445000
     23 H17          6.2890     1.6260    -0.2110 h1         1 GYM       0.050700
     24 H71          7.1780     0.3230    -1.0320 h1         1 GYM       0.050700
     25 H18          6.2540     0.2520     1.8910 h1         1 GYM       0.097700
     26 H19          8.0210    -1.4330     1.8250 ho         1 GYM       0.436000
     27 H20          7.9990     1.9520     1.6410 h1         1 GYM       0.021700
     28 H22          9.0340     0.8290     0.7390 h1         1 GYM       0.021700
     29 H23          3.0530    -0.9470    -2.7960 hc         1 GYM       0.073200
     30 H24          3.3100    -1.5770    -1.1260 hc         1 GYM       0.073200
     31 H33          2.2320     0.4470    -0.1850 hc         1 GYM       0.053700
     32 H34          1.9600     1.0790    -1.8090 hc         1 GYM       0.053700
     33 H43          0.5040    -0.9010    -2.3370 hc         1 GYM       0.038200
     34 H44          0.7740    -1.5330    -0.7130 hc         1 GYM       0.038200
     35 H53         -0.3050     0.5150     0.2640 hc         1 GYM       0.039700
     36 H54         -0.5760     1.1470    -1.3600 hc         1 GYM       0.039700
     37 H63         -2.0320    -0.8320    -1.8880 hc         1 GYM       0.037700
     38 H64         -1.7610    -1.4640    -0.2630 hc         1 GYM       0.037700
     39 H73         -2.8410     0.5840     0.7130 hc         1 GYM       0.037700
     40 H74         -3.1120     1.2160    -0.9110 hc         1 GYM       0.037700
     41 H83         -4.5670    -0.7640    -1.4380 hc         1 GYM       0.037200
     42 H84         -4.2960    -1.3950     0.1870 hc         1 GYM       0.037200
     43 H93         -5.3760     0.6530     1.1630 hc         1 GYM       0.037200
     44 H94         -5.6480     1.2840    -0.4620 hc         1 GYM       0.037200
     45 HA1         -7.1030    -0.6960    -0.9880 hc         1 GYM       0.036700
     46 HA2         -6.8320    -1.3270     0.6370 hc         1 GYM       0.036700
     47 HA3         -7.9120     0.7220     1.6130 hc         1 GYM       0.036700
     48 HA4         -8.1840     1.3520    -0.0120 hc         1 GYM       0.036700
     49 HA5         -9.6390    -0.6280    -0.5380 hc         1 GYM       0.036700
     50 HA6         -9.3680    -1.2590     1.0870 hc         1 GYM       0.036700
     51 HA7        -10.4530     0.7900     2.0630 hc         1 GYM       0.036700
     52 HA8        -10.7240     1.4200     0.4390 hc         1 GYM       0.036700
     53 H40        -12.2140    -0.5420    -0.0830 hc         1 GYM       0.031367
     54 H41        -11.9400    -1.1780     1.5560 hc         1 GYM       0.031367
     55 H42        -12.7950     0.3630     1.3310 hc         1 GYM       0.031367
@<TRIPOS>BOND
     1     1     2 1   
     2     1    22 1   
     3     2     3 1   
     4     2    27 1   
     5     2    28 1   
     6     3     4 1   
     7     3     5 1   
     8     3    25 1   
     9     4    26 1   
    10     5     6 1   
    11     5    23 1   
    12     5    24 1   
    13     6     7 1   
    14     7     8 2   
    15     7     9 1   
    16     9    10 1   
    17     9    29 1   
    18     9    30 1   
    19    10    11 1   
    20    10    31 1   
    21    10    32 1   
    22    11    12 1   
    23    11    33 1   
    24    11    34 1   
    25    12    13 1   
    26    12    35 1   
    27    12    36 1   
    28    13    14 1   
    29    13    37 1   
    30    13    38 1   
    31    14    15 1   
    32    14    39 1   
    33    14    40 1   
    34    15    16 1   
    35    15    41 1   
    36    15    42 1   
    37    16    17 1   
    38    16    43 1   
    39    16    44 1   
    40    17    18 1   
    41    17    45 1   
    42    17    46 1   
    43    18    19 1   
    44    18    47 1   
    45    18    48 1   
    46    19    20 1   
    47    19    49 1   
    48    19    50 1   
    49    20    21 1   
    50    20    51 1   
    51    20    52 1   
    52    21    53 1   
    53    21    54 1   
    54    21    55 1   
@<TRIPOS>SUBSTRUCTURE
     1 GYM         1 TEMP              0 ****  ****    0 ROOT
