@<TRIPOS>MOLECULE
GYM
   55    54     1     0     0
SMALL
bcc


@<TRIPOS>ATOM
      1 O21         10.1080    -0.6520     0.7520 oh         1 GYM      -0.579800
      2 C20          9.1340     0.2590     0.3050 c3         1 GYM       0.105400
      3 C18          7.7810    -0.4360     0.3030 c3         1 GYM       0.141100
      4 O19          7.7580    -1.5730    -0.5250 oh         1 GYM      -0.563800
      5 C17          6.7030     0.5670    -0.0720 c3         1 GYM       0.105400
      6 O2           5.4410    -0.0880     0.0490 os         1 GYM      -0.410900
      7 C1           4.3470     0.6260    -0.1910 c          1 GYM       0.641100
      8 O1           4.3750     1.7900    -0.5070 o          1 GYM      -0.541000
      9 C2           3.1000    -0.1990    -0.0220 c3         1 GYM      -0.136400
     10 C3           1.8160     0.5980    -0.1840 c3         1 GYM      -0.068400
     11 C4           0.5770    -0.2710    -0.0080 c3         1 GYM      -0.076400
     12 C5          -0.7190     0.5170    -0.1560 c3         1 GYM      -0.074400
     13 C6          -1.9680    -0.3370     0.0210 c3         1 GYM      -0.074400
     14 C7          -3.2600     0.4570    -0.1220 c3         1 GYM      -0.074400
     15 C8          -4.5130    -0.3910     0.0520 c3         1 GYM      -0.074400
     16 C9          -5.8030     0.4070    -0.0870 c3         1 GYM      -0.074400
     17 C10         -7.0590    -0.4370     0.0860 c3         1 GYM      -0.074400
     18 C11         -8.3470     0.3650    -0.0480 c3         1 GYM      -0.074400
     19 C12         -9.6040    -0.4770     0.1250 c3         1 GYM      -0.075400
     20 C13        -10.8920     0.3260    -0.0030 c3         1 GYM      -0.074400
     21 C14        -12.1410    -0.5270     0.1710 c3         1 GYM      -0.088100
     22 H21         10.9630    -0.2130     0.7180 ho         1 GYM       0.406000
     23 H17          6.7440     1.4310     0.5950 h1         1 GYM       0.050700
     24 H71          6.8470     0.9240    -1.0970 h1         1 GYM       0.050700
     25 H18          7.5790    -0.7980     1.3160 h1         1 GYM       0.097700
     26 H19          8.0120    -1.3110    -1.4170 ho         1 GYM       0.397000
     27 H20          9.0750     1.1420     0.9540 h1         1 GYM       0.021700
     28 H22          9.3550     0.6250    -0.7090 h1         1 GYM       0.021700
     29 H23          3.1370    -1.0180    -0.7480 hc         1 GYM       0.073200
     30 H24          3.1340    -0.6790     0.9610 hc         1 GYM       0.073200
     31 H33          1.7930     1.4130     0.5440 hc         1 GYM       0.053700
     32 H34          1.7930     1.0660    -1.1720 hc         1 GYM       0.053700
     33 H43          0.5930    -1.0860    -0.7400 hc         1 GYM       0.038200
     34 H44          0.6000    -0.7490     0.9780 hc         1 GYM       0.038200
     35 H53         -0.7310     1.3320     0.5760 hc         1 GYM       0.039700
     36 H54         -0.7410     0.9950    -1.1410 hc         1 GYM       0.039700
     37 H63         -1.9590    -1.1510    -0.7130 hc         1 GYM       0.037700
     38 H64         -1.9440    -0.8170     1.0050 hc         1 GYM       0.037700
     39 H73         -3.2680     1.2690     0.6140 hc         1 GYM       0.037700
     40 H74         -3.2820     0.9400    -1.1050 hc         1 GYM       0.037700
     41 H83         -4.5080    -1.2040    -0.6830 hc         1 GYM       0.037200
     42 H84         -4.4910    -0.8750     1.0360 hc         1 GYM       0.037200
     43 H93         -5.8080     1.2180     0.6500 hc         1 GYM       0.037200
     44 H94         -5.8240     0.8930    -1.0690 hc         1 GYM       0.037200
     45 HA1         -7.0570    -1.2470    -0.6530 hc         1 GYM       0.036700
     46 HA2         -7.0370    -0.9240     1.0670 hc         1 GYM       0.036700
     47 HA3         -8.3480     1.1740     0.6910 hc         1 GYM       0.036700
     48 HA4         -8.3690     0.8540    -1.0290 hc         1 GYM       0.036700
     49 HA5         -9.6060    -1.2840    -0.6160 hc         1 GYM       0.036700
     50 HA6         -9.5810    -0.9680     1.1050 hc         1 GYM       0.036700
     51 HA7        -10.8920     1.1300     0.7400 hc         1 GYM       0.036700
     52 HA8        -10.9160     0.8180    -0.9800 hc         1 GYM       0.036700
     53 H40        -12.1930    -1.3100    -0.5880 hc         1 GYM       0.031367
     54 H41        -12.1500    -1.0170     1.1470 hc         1 GYM       0.031367
     55 H42        -13.0510     0.0690     0.0940 hc         1 GYM       0.031367
@<TRIPOS>BOND
     1     1     2 1   
     2     1    22 1   
     3     2     3 1   
     4     2    27 1   
     5     2    28 1   
     6     3     4 1   
     7     3     5 1   
     8     3    25 1   
     9     4    26 1   
    10     5     6 1   
    11     5    23 1   
    12     5    24 1   
    13     6     7 1   
    14     7     8 2   
    15     7     9 1   
    16     9    10 1   
    17     9    29 1   
    18     9    30 1   
    19    10    11 1   
    20    10    31 1   
    21    10    32 1   
    22    11    12 1   
    23    11    33 1   
    24    11    34 1   
    25    12    13 1   
    26    12    35 1   
    27    12    36 1   
    28    13    14 1   
    29    13    37 1   
    30    13    38 1   
    31    14    15 1   
    32    14    39 1   
    33    14    40 1   
    34    15    16 1   
    35    15    41 1   
    36    15    42 1   
    37    16    17 1   
    38    16    43 1   
    39    16    44 1   
    40    17    18 1   
    41    17    45 1   
    42    17    46 1   
    43    18    19 1   
    44    18    47 1   
    45    18    48 1   
    46    19    20 1   
    47    19    49 1   
    48    19    50 1   
    49    20    21 1   
    50    20    51 1   
    51    20    52 1   
    52    21    53 1   
    53    21    54 1   
    54    21    55 1   
@<TRIPOS>SUBSTRUCTURE
     1 GYM         1 TEMP              0 ****  ****    0 ROOT
