@<TRIPOS>MOLECULE
GYO
   40    43     1     0     0
SMALL
No Charge or Current Charge


@<TRIPOS>ATOM
      1 C01         10.5090    -8.6520   128.8590 ca         1 GYO       0.081400
      2 C02          9.2900    -9.1990   128.5910 ca         1 GYO      -0.098200
      3 C04         10.8910   -10.3680   127.6010 cc         1 GYO       0.419700
      4 C06         10.6130    -7.5010   129.6480 ca         1 GYO      -0.059000
      5 C07          9.4270    -6.9310   130.1620 ca         1 GYO      -0.094000
      6 C08          8.1550    -7.5160   129.9030 ca         1 GYO      -0.124600
      7 C09          8.0900    -8.6690   129.0770 ca         1 GYO      -0.078000
      8 C10          6.9160    -6.8510   130.4730 c          1 GYO       0.617700
      9 C13          5.7990    -9.0350   131.0780 cx         1 GYO       0.060700
     10 C14          5.3390    -9.5210   132.4360 cx         1 GYO      -0.068400
     11 C15          6.7910    -9.6500   132.0360 cx         1 GYO      -0.126400
     12 C16          4.8980    -8.5810   133.5310 ca         1 GYO      -0.090300
     13 C17          5.6380    -8.5130   134.7280 ca         1 GYO      -0.064000
     14 C18          5.2430    -7.6500   135.7620 ca         1 GYO      -0.143000
     15 C19          4.1010    -6.8490   135.6130 ca         1 GYO      -0.068000
     16 C20          3.3490    -6.9140   134.4280 ca         1 GYO      -0.194000
     17 C21          3.7400    -7.7810   133.3830 ca         1 GYO       0.139100
     18 C23          1.8260    -7.1050   131.9670 c3         1 GYO       0.146900
     19 N03          9.5140   -10.2800   127.7950 na         1 GYO      -0.315600
     20 N05         11.5330    -9.3710   128.2480 nd         1 GYO      -0.574100
     21 N11          5.8320    -7.6110   130.8600 ns         1 GYO      -0.480900
     22 O12          6.8420    -5.6350   130.5750 o          1 GYO      -0.597100
     23 O22          3.0200    -7.8720   132.2050 os         1 GYO      -0.347100
     24 H1          11.3470   -11.1480   127.0020 h5         1 GYO       0.061800
     25 H2          11.5830    -7.0560   129.8560 ha         1 GYO       0.133000
     26 H3           9.4960    -6.0350   130.7770 ha         1 GYO       0.131000
     27 H4           7.1430    -9.1210   128.7960 ha         1 GYO       0.121000
     28 H5           5.4750    -9.6140   130.2120 h1         1 GYO       0.079700
     29 H6           4.7570   -10.4400   132.4390 hc         1 GYO       0.091700
     30 H7           7.1670   -10.6420   131.8010 hc         1 GYO       0.081700
     31 H8           7.5160    -8.9910   132.5070 hc         1 GYO       0.081700
     32 H9           6.5220    -9.1330   134.8590 ha         1 GYO       0.116000
     33 H10          5.8230    -7.6030   136.6820 ha         1 GYO       0.118000
     34 H11          3.7970    -6.1800   136.4160 ha         1 GYO       0.113000
     35 H12          2.4680    -6.2850   134.3420 ha         1 GYO       0.118000
     36 H13          1.4190    -7.3340   130.9740 h1         1 GYO       0.041367
     37 H14          1.0560    -7.3400   132.7130 h1         1 GYO       0.041367
     38 H15          2.0400    -6.0290   132.0060 h1         1 GYO       0.041367
     39 H16          8.8240   -10.9120   127.4090 hn         1 GYO       0.358000
     40 H18          5.0400    -7.0730   131.1880 hn         1 GYO       0.325500
@<TRIPOS>BOND
     1     1     2 ar  
     2     1     4 ar  
     3     1    20 1   
     4     2     7 ar  
     5     2    19 1   
     6     3    19 1   
     7     3    20 2   
     8     3    24 1   
     9     4     5 ar  
    10     4    25 1   
    11     5     6 ar  
    12     5    26 1   
    13     6     7 ar  
    14     6     8 1   
    15     7    27 1   
    16     8    21 1   
    17     8    22 2   
    18     9    10 1   
    19     9    11 1   
    20     9    21 1   
    21     9    28 1   
    22    10    11 1   
    23    10    12 1   
    24    10    29 1   
    25    11    30 1   
    26    11    31 1   
    27    12    13 ar  
    28    12    17 ar  
    29    13    14 ar  
    30    13    32 1   
    31    14    15 ar  
    32    14    33 1   
    33    15    16 ar  
    34    15    34 1   
    35    16    17 ar  
    36    16    35 1   
    37    17    23 1   
    38    18    23 1   
    39    18    36 1   
    40    18    37 1   
    41    18    38 1   
    42    19    39 1   
    43    21    40 1   
@<TRIPOS>SUBSTRUCTURE
     1 GYO         1 TEMP              0 ****  ****    0 ROOT
