@<TRIPOS>MOLECULE
GYO
   40    43     1     0     0
SMALL
abcg2


@<TRIPOS>ATOM
      1 C01         10.5270    -8.7770   129.0500 ca         1 GYO       0.081400
      2 C02          9.2540    -9.1570   128.5920 ca         1 GYO      -0.098200
      3 C04         10.8390   -10.3020   127.6110 cc         1 GYO       0.419700
      4 C06         10.6400    -7.7690   130.0090 ca         1 GYO      -0.059000
      5 C07          9.4820    -7.1740   130.4660 ca         1 GYO      -0.094000
      6 C08          8.2110    -7.5810   130.0140 ca         1 GYO      -0.124600
      7 C09          8.0820    -8.5800   129.0610 ca         1 GYO      -0.078000
      8 C10          7.0230    -6.8290   130.5140 c          1 GYO       0.617700
      9 C13          5.7590    -8.9320   130.9940 cx         1 GYO       0.060700
     10 C14          5.2750    -9.4310   132.3340 cx         1 GYO      -0.068400
     11 C15          6.6890    -9.6590   131.9120 cx         1 GYO      -0.126400
     12 C16          4.9300    -8.4780   133.4230 ca         1 GYO      -0.090300
     13 C17          5.7740    -8.2390   134.4970 ca         1 GYO      -0.064000
     14 C18          5.4250    -7.3600   135.5170 ca         1 GYO      -0.143000
     15 C19          4.2040    -6.7100   135.4600 ca         1 GYO      -0.068000
     16 C20          3.3350    -6.9290   134.3970 ca         1 GYO      -0.194000
     17 C21          3.6940    -7.8110   133.3820 ca         1 GYO       0.139100
     18 C23          1.6810    -7.4170   132.1830 c3         1 GYO       0.146900
     19 N03          9.4980   -10.1360   127.6680 na         1 GYO      -0.315600
     20 N05         11.4970    -9.5150   128.4170 nd         1 GYO      -0.574100
     21 N11          5.9050    -7.5260   130.8150 ns         1 GYO      -0.480900
     22 O12          7.0640    -5.6120   130.6250 o          1 GYO      -0.597100
     23 O22          2.9230    -8.0780   132.3090 os         1 GYO      -0.347100
     24 H1          11.2870   -11.0290   126.9500 h5         1 GYO       0.061800
     25 H2          11.6090    -7.4570   130.3760 ha         1 GYO       0.133000
     26 H3           9.5490    -6.3830   131.2000 ha         1 GYO       0.131000
     27 H4           7.1180    -8.8880   128.6790 ha         1 GYO       0.121000
     28 H5           5.3880    -9.4770   130.1330 h1         1 GYO       0.079700
     29 H6           4.6150   -10.2900   132.2600 hc         1 GYO       0.091700
     30 H7           6.9910   -10.6590   131.6320 hc         1 GYO       0.081700
     31 H8           7.4690    -9.0780   132.3880 hc         1 GYO       0.081700
     32 H9           6.7260    -8.7530   134.5380 ha         1 GYO       0.116000
     33 H10          6.1010    -7.1910   136.3440 ha         1 GYO       0.118000
     34 H11          3.9140    -6.0210   136.2440 ha         1 GYO       0.113000
     35 H12          2.3900    -6.4050   134.3750 ha         1 GYO       0.118000
     36 H13          1.2410    -7.7630   131.2500 h1         1 GYO       0.041367
     37 H14          1.0020    -7.6630   133.0030 h1         1 GYO       0.041367
     38 H15          1.7980    -6.3320   132.1350 h1         1 GYO       0.041367
     39 H16          8.8140   -10.6450   127.1290 hn         1 GYO       0.358000
     40 H18          5.1060    -6.9550   131.0540 hn         1 GYO       0.325500
@<TRIPOS>BOND
     1     1     2 ar  
     2     1     4 ar  
     3     1    20 1   
     4     2     7 ar  
     5     2    19 1   
     6     3    19 1   
     7     3    20 2   
     8     3    24 1   
     9     4     5 ar  
    10     4    25 1   
    11     5     6 ar  
    12     5    26 1   
    13     6     7 ar  
    14     6     8 1   
    15     7    27 1   
    16     8    21 1   
    17     8    22 2   
    18     9    10 1   
    19     9    11 1   
    20     9    21 1   
    21     9    28 1   
    22    10    11 1   
    23    10    12 1   
    24    10    29 1   
    25    11    30 1   
    26    11    31 1   
    27    12    13 ar  
    28    12    17 ar  
    29    13    14 ar  
    30    13    32 1   
    31    14    15 ar  
    32    14    33 1   
    33    15    16 ar  
    34    15    34 1   
    35    16    17 ar  
    36    16    35 1   
    37    17    23 1   
    38    18    23 1   
    39    18    36 1   
    40    18    37 1   
    41    18    38 1   
    42    19    39 1   
    43    21    40 1   
@<TRIPOS>SUBSTRUCTURE
     1 GYO         1 TEMP              0 ****  ****    0 ROOT
