@<TRIPOS>MOLECULE
GYP
   27    27     1     0     0
SMALL
abcg2


@<TRIPOS>ATOM
      1 C1         -15.6180    48.0010   -16.0080 c6         1 GYP       0.341300
      2 C2         -14.3550    48.2840   -15.1830 c6         1 GYP       0.163300
      3 C3         -13.2840    47.2510   -15.4960 c6         1 GYP       0.177300
      4 C4         -13.8670    45.8560   -15.2850 c6         1 GYP       0.103300
      5 C5         -15.1330    45.6800   -16.1260 c6         1 GYP       0.146300
      6 C6         -15.8110    44.3400   -15.9390 c3         1 GYP       0.162600
      7 O1         -15.3390    48.2630   -17.3420 os         1 GYP      -0.462000
      8 O2         -13.8440    49.5660   -15.4260 oh         1 GYP      -0.682000
      9 O3         -12.1820    47.4770   -14.6520 oh         1 GYP      -0.646000
     10 O4         -12.8750    44.9240   -15.6570 oh         1 GYP      -0.726000
     11 O5         -16.0710    46.6940   -15.7940 os         1 GYP      -0.464000
     12 O6         -16.0900    44.1260   -14.5760 oh         1 GYP      -0.716000
     13 H1         -16.4410    48.6420   -15.6570 h2         1 GYP       0.064700
     14 H2         -14.6410    48.1650   -14.1270 h1         1 GYP       0.053700
     15 H3         -12.9880    47.3470   -16.5520 h1         1 GYP       0.068700
     16 H4         -14.1220    45.7550   -14.2220 h1         1 GYP       0.068700
     17 H5         -14.8570    45.7410   -17.1880 h1         1 GYP       0.062700
     18 H61        -16.7230    44.3290   -16.5510 h1         1 GYP       0.030700
     19 H62        -15.1520    43.5660   -16.3510 h1         1 GYP       0.030700
     20 H7C1       -16.9090    47.2780   -18.3120 h1         1 GYP       0.032700
     21 H7C2       -17.2470    48.9460   -17.8120 h1         1 GYP       0.032700
     22 H7C3       -16.1440    48.6280   -19.1620 h1         1 GYP       0.032700
     23 HO2        -14.4660    50.2150   -15.0830 ho         1 GYP       0.502000
     24 HO3        -11.5430    46.7760   -14.8200 ho         1 GYP       0.455000
     25 HO4        -12.9920    44.1220   -15.1390 ho         1 GYP       0.512000
     26 HO6        -16.4680    43.2470   -14.4800 ho         1 GYP       0.504000
     27 C7         -16.4690    48.2710   -18.1860 c3         1 GYP       0.146900
@<TRIPOS>BOND
     1     1     2 1   
     2     1     7 1   
     3     1    11 1   
     4     1    13 1   
     5     2     3 1   
     6     2     8 1   
     7     2    14 1   
     8     3     4 1   
     9     3     9 1   
    10     3    15 1   
    11     4     5 1   
    12     4    10 1   
    13     4    16 1   
    14     5     6 1   
    15     5    11 1   
    16     5    17 1   
    17     6    12 1   
    18     6    18 1   
    19     6    19 1   
    20     7    27 1   
    21     8    23 1   
    22     9    24 1   
    23    10    25 1   
    24    12    26 1   
    25    20    27 1   
    26    21    27 1   
    27    22    27 1   
@<TRIPOS>SUBSTRUCTURE
     1 GYP         1 TEMP              0 ****  ****    0 ROOT
