@<TRIPOS>MOLECULE
GYP
   27    27     1     0     0
SMALL
No Charge or Current Charge


@<TRIPOS>ATOM
      1 C1         -15.6050    48.0710   -15.9800 c6         1 GYP       0.341300
      2 C2         -14.3070    48.3740   -15.1440 c6         1 GYP       0.163300
      3 C3         -13.2170    47.2960   -15.4620 c6         1 GYP       0.177300
      4 C4         -13.7840    45.8590   -15.2640 c6         1 GYP       0.103300
      5 C5         -15.0700    45.6880   -16.1320 c6         1 GYP       0.146300
      6 C6         -15.7550    44.2910   -15.9570 c3         1 GYP       0.162600
      7 O1         -15.4080    48.3030   -17.3920 os         1 GYP      -0.462000
      8 O2         -13.8020    49.7160   -15.3850 oh         1 GYP      -0.682000
      9 O3         -12.0460    47.4450   -14.6340 oh         1 GYP      -0.646000
     10 O4         -12.7670    44.8820   -15.5880 oh         1 GYP      -0.726000
     11 O5         -16.0410    46.7080   -15.7740 os         1 GYP      -0.464000
     12 O6         -16.1890    44.0220   -14.6090 oh         1 GYP      -0.716000
     13 H1         -16.3990    48.7460   -15.6240 h2         1 GYP       0.064700
     14 H2         -14.5760    48.2710   -14.0820 h1         1 GYP       0.053700
     15 H3         -12.9370    47.4030   -16.5210 h1         1 GYP       0.068700
     16 H4         -14.0780    45.7560   -14.2070 h1         1 GYP       0.068700
     17 H5         -14.8090    45.8010   -17.1950 h1         1 GYP       0.062700
     18 H61        -16.6150    44.2560   -16.6400 h1         1 GYP       0.030700
     19 H62        -15.0540    43.5140   -16.2920 h1         1 GYP       0.030700
     20 H7C1       -17.0420    47.2470   -18.1800 h1         1 GYP       0.032700
     21 H7C2       -17.3270    48.9820   -17.8910 h1         1 GYP       0.032700
     22 H7C3       -16.3250    48.4600   -19.2620 h1         1 GYP       0.032700
     23 HO2        -14.5170    50.3470   -15.1390 ho         1 GYP       0.502000
     24 HO3        -11.5820    46.5800   -14.7160 ho         1 GYP       0.455000
     25 HO4        -13.0530    44.0220   -15.1960 ho         1 GYP       0.512000
     26 HO6        -16.7420    43.2070   -14.6410 ho         1 GYP       0.504000
     27 C7         -16.5830    48.2440   -18.2180 c3         1 GYP       0.146900
@<TRIPOS>BOND
     1     1     2 1   
     2     1     7 1   
     3     1    11 1   
     4     1    13 1   
     5     2     3 1   
     6     2     8 1   
     7     2    14 1   
     8     3     4 1   
     9     3     9 1   
    10     3    15 1   
    11     4     5 1   
    12     4    10 1   
    13     4    16 1   
    14     5     6 1   
    15     5    11 1   
    16     5    17 1   
    17     6    12 1   
    18     6    18 1   
    19     6    19 1   
    20     7    27 1   
    21     8    23 1   
    22     9    24 1   
    23    10    25 1   
    24    12    26 1   
    25    20    27 1   
    26    21    27 1   
    27    22    27 1   
@<TRIPOS>SUBSTRUCTURE
     1 GYP         1 TEMP              0 ****  ****    0 ROOT
