@<TRIPOS>MOLECULE
GYQ
   44    47     1     0     0
SMALL
abcg2


@<TRIPOS>ATOM
      1 C2          -4.6330    -2.1670    -0.6320 c          1 GYQ       0.588200
      2 C4          -6.2730    -2.1160     0.9760 cc         1 GYQ       0.530500
      3 C5          -5.6210    -1.0690     1.7440 cc         1 GYQ      -0.317600
      4 C6          -4.4720    -0.5360     1.3110 cd         1 GYQ      -0.242600
      5 C7          -3.9010    -1.0330     0.0680 cd         1 GYQ       0.420600
      6 N10         -2.6970     1.5580     0.2540 nb         1 GYQ      -0.204000
      7 C11         -1.9600     2.6310     0.5570 ca         1 GYQ       0.116900
      8 C12         -0.5930     2.5360     0.5310 ca         1 GYQ      -0.098400
      9 N13          0.4630     3.3710     0.7630 ns         1 GYQ      -0.491600
     10 C17         -0.0470     1.2960     0.1630 ca         1 GYQ       0.191900
     11 C19          2.2420     0.3410    -0.1510 c6         1 GYQ       0.131700
     12 C21          3.1930     0.0070     0.9940 c6         1 GYQ      -0.089400
     13 C23          4.8440    -0.9100    -0.6840 c6         1 GYQ      -0.060700
     14 O1          -4.1890    -2.6490    -1.6440 o          1 GYQ      -0.429100
     15 N3          -5.8350    -2.6380    -0.1100 nd         1 GYQ      -0.619100
     16 N8          -2.8260    -0.6530    -0.4990 ne         1 GYQ      -0.552700
     17 C9          -2.0790     0.4400    -0.0880 ca         1 GYQ       0.308000
     18 C14          1.6520     2.7110     0.5530 c          1 GYQ       0.600000
     19 O15          2.7670     3.1700     0.6590 o          1 GYQ      -0.532000
     20 N16          1.3100     1.4110     0.1920 n          1 GYQ      -0.372300
     21 N18         -0.7570     0.2520    -0.1750 nb         1 GYQ      -0.147000
     22 C22          4.0800    -1.1730     0.6120 c6         1 GYQ      -0.071400
     23 C25          5.6940    -2.1160    -1.0990 c3         1 GYQ      -0.016300
     24 C26          6.7250    -2.4390    -0.1250 c1         1 GYQ       0.299900
     25 N27          7.5340    -2.6860     0.6550 n1         1 GYQ      -0.464000
     26 C28          3.8780    -0.5560    -1.8130 c6         1 GYQ      -0.071400
     27 C29          2.9940     0.6300    -1.4460 c6         1 GYQ      -0.089400
     28 H1          -7.2090    -2.5060     1.3650 h4         1 GYQ       0.032800
     29 H2          -6.0800    -0.7550     2.6710 ha         1 GYQ       0.200000
     30 H3          -3.9610     0.2270     1.8780 ha         1 GYQ       0.209000
     31 H4          -2.4810     3.5460     0.8130 h4         1 GYQ       0.036100
     32 H5           0.4120     4.3400     1.0370 hn         1 GYQ       0.476000
     33 H6           1.6030    -0.5300    -0.3200 h1         1 GYQ       0.086700
     34 H7           3.8150     0.8720     1.2330 hc         1 GYQ       0.059950
     35 H8           2.6190    -0.2360     1.8920 hc         1 GYQ       0.059950
     36 H9           5.5160    -0.0590    -0.5270 hc         1 GYQ       0.063700
     37 H10          4.7730    -1.3760     1.4320 hc         1 GYQ       0.048950
     38 H11          3.4650    -2.0720     0.4910 hc         1 GYQ       0.048950
     39 H12          5.0670    -3.0020    -1.2320 hc         1 GYQ       0.071200
     40 H13          6.1860    -1.9280    -2.0560 hc         1 GYQ       0.071200
     41 H14          4.4350    -0.3280    -2.7240 hc         1 GYQ       0.048950
     42 H15          3.2520    -1.4270    -2.0390 hc         1 GYQ       0.048950
     43 H16          2.2810     0.8240    -2.2500 hc         1 GYQ       0.059950
     44 H17          3.6090     1.5250    -1.3320 hc         1 GYQ       0.059950
@<TRIPOS>BOND
     1     1     5 1   
     2     1    14 2   
     3     1    15 1   
     4     2     3 1   
     5     2    15 2   
     6     2    28 1   
     7     3     4 2   
     8     3    29 1   
     9     4     5 1   
    10     4    30 1   
    11     5    16 2   
    12     6     7 ar  
    13     6    17 ar  
    14     7     8 ar  
    15     7    31 1   
    16     8     9 1   
    17     8    10 ar  
    18     9    18 1   
    19     9    32 1   
    20    10    20 1   
    21    10    21 ar  
    22    11    12 1   
    23    11    20 1   
    24    11    27 1   
    25    11    33 1   
    26    12    22 1   
    27    12    34 1   
    28    12    35 1   
    29    13    22 1   
    30    13    23 1   
    31    13    26 1   
    32    13    36 1   
    33    16    17 1   
    34    17    21 ar  
    35    18    19 2   
    36    18    20 1   
    37    22    37 1   
    38    22    38 1   
    39    23    24 1   
    40    23    39 1   
    41    23    40 1   
    42    24    25 3   
    43    26    27 1   
    44    26    41 1   
    45    26    42 1   
    46    27    43 1   
    47    27    44 1   
@<TRIPOS>SUBSTRUCTURE
     1 GYQ         1 TEMP              0 ****  ****    0 ROOT
