@<TRIPOS>MOLECULE
GYQ
   44    47     1     0     0
SMALL
No Charge or Current Charge


@<TRIPOS>ATOM
      1 C2          -4.3270    -0.5140     1.3350 c          1 GYQ       0.588200
      2 C4          -4.2600    -2.8430     1.8420 cc         1 GYQ       0.530500
      3 C5          -3.6980    -3.1660     0.5620 cc         1 GYQ      -0.317600
      4 C6          -3.4310    -2.1800    -0.3790 cd         1 GYQ      -0.242600
      5 C7          -3.7340    -0.8130    -0.0320 cd         1 GYQ       0.420600
      6 N10         -2.9950     2.3640    -0.8200 nb         1 GYQ      -0.204000
      7 C11         -2.1160     3.3850    -0.6620 ca         1 GYQ       0.116900
      8 C12         -0.7620     3.0800    -0.5050 ca         1 GYQ      -0.098400
      9 N13          0.4020     3.8400    -0.3190 ns         1 GYQ      -0.491600
     10 C17         -0.3610     1.7650    -0.5160 ca         1 GYQ       0.191900
     11 C19          1.8690     0.5140    -0.2870 c6         1 GYQ       0.131700
     12 C21          2.5350     0.3000     1.0940 c6         1 GYQ      -0.089400
     13 C23          4.3830    -1.0990    -0.0200 c6         1 GYQ      -0.060700
     14 O1          -4.6160     0.6110     1.7240 o          1 GYQ      -0.429100
     15 N3          -4.5540    -1.6090     2.2050 nd         1 GYQ      -0.619100
     16 N8          -3.4440     0.0550    -0.9790 ne         1 GYQ      -0.552700
     17 C9          -2.5110     1.0870    -0.8160 ca         1 GYQ       0.308000
     18 C14          1.5300     3.0710    -0.2100 c          1 GYQ       0.600000
     19 O15          2.6730     3.4590    -0.0430 o          1 GYQ      -0.532000
     20 N16          1.0540     1.7490    -0.3340 n          1 GYQ      -0.372300
     21 N18         -1.2050     0.7340    -0.6700 nb         1 GYQ      -0.147000
     22 C22          3.3320    -1.0280     1.1300 c6         1 GYQ      -0.071400
     23 C25          5.1970    -2.4330    -0.0040 c3         1 GYQ      -0.016300
     24 C26          6.0460    -2.6120     1.1820 c1         1 GYQ       0.299900
     25 N27          6.7400    -2.7640     2.1050 n1         1 GYQ      -0.464000
     26 C28          3.6860    -0.8950    -1.3970 c6         1 GYQ      -0.071400
     27 C29          2.8920     0.4350    -1.4460 c6         1 GYQ      -0.089400
     28 H1          -4.4750    -3.5970     2.5870 h4         1 GYQ       0.032800
     29 H2          -3.4910    -4.2130     0.3580 ha         1 GYQ       0.200000
     30 H3          -3.0050    -2.4190    -1.3500 ha         1 GYQ       0.209000
     31 H4          -2.5000     4.4040    -0.6630 h4         1 GYQ       0.036100
     32 H5           0.4330     4.8550    -0.2660 hn         1 GYQ       0.476000
     33 H6           1.1820    -0.3330    -0.4290 h1         1 GYQ       0.086700
     34 H7           3.2090     1.1370     1.3210 hc         1 GYQ       0.059950
     35 H8           1.7680     0.2940     1.8810 hc         1 GYQ       0.059950
     36 H9           5.1100    -0.2850     0.1170 hc         1 GYQ       0.063700
     37 H10          3.8250    -1.1210     2.1080 hc         1 GYQ       0.048950
     38 H11          2.6370    -1.8760     1.0530 hc         1 GYQ       0.048950
     39 H12          4.5200    -3.2930    -0.0740 hc         1 GYQ       0.071200
     40 H13          5.8500    -2.4830    -0.8830 hc         1 GYQ       0.071200
     41 H14          4.4340    -0.9010    -2.2020 hc         1 GYQ       0.048950
     42 H15          3.0070    -1.7360    -1.6000 hc         1 GYQ       0.048950
     43 H16          2.3710     0.5210    -2.4090 hc         1 GYQ       0.059950
     44 H17          3.5920     1.2790    -1.3920 hc         1 GYQ       0.059950
@<TRIPOS>BOND
     1     1     5 1   
     2     1    14 2   
     3     1    15 1   
     4     2     3 1   
     5     2    15 2   
     6     2    28 1   
     7     3     4 2   
     8     3    29 1   
     9     4     5 1   
    10     4    30 1   
    11     5    16 2   
    12     6     7 ar  
    13     6    17 ar  
    14     7     8 ar  
    15     7    31 1   
    16     8     9 1   
    17     8    10 ar  
    18     9    18 1   
    19     9    32 1   
    20    10    20 1   
    21    10    21 ar  
    22    11    12 1   
    23    11    20 1   
    24    11    27 1   
    25    11    33 1   
    26    12    22 1   
    27    12    34 1   
    28    12    35 1   
    29    13    22 1   
    30    13    23 1   
    31    13    26 1   
    32    13    36 1   
    33    16    17 1   
    34    17    21 ar  
    35    18    19 2   
    36    18    20 1   
    37    22    37 1   
    38    22    38 1   
    39    23    24 1   
    40    23    39 1   
    41    23    40 1   
    42    24    25 3   
    43    26    27 1   
    44    26    41 1   
    45    26    42 1   
    46    27    43 1   
    47    27    44 1   
@<TRIPOS>SUBSTRUCTURE
     1 GYQ         1 TEMP              0 ****  ****    0 ROOT
