@<TRIPOS>MOLECULE
GYR
   64    67     1     0     0
SMALL
abcg2


@<TRIPOS>ATOM
      1 OBG         -3.7920    -0.8190    -1.6500 o          1 GYR      -0.515500
      2 SAJ         -4.9480    -0.1790    -1.0280 sy         1 GYR       1.034500
      3 OBF         -5.5550     0.9730    -1.6920 o          1 GYR      -0.515500
      4 CAK         -6.2030    -1.4050    -0.7700 ca         1 GYR      -0.268500
      5 CAR         -7.5300    -1.0060    -0.6780 ca         1 GYR      -0.017500
      6 CAQ         -8.5040    -1.9680    -0.4580 ca         1 GYR      -0.128500
      7 CAP         -8.1480    -3.3050    -0.3350 ca         1 GYR      -0.057000
      8 CAO         -6.8160    -3.6890    -0.4310 ca         1 GYR      -0.128500
      9 CAN         -5.8320    -2.7370    -0.6490 ca         1 GYR      -0.017500
     10 CAI         -4.4900     0.3090     0.6480 c3         1 GYR      -0.229100
     11 CAB         -3.3890     1.3200     0.5810 ca         1 GYR      -0.049300
     12 CAA         -3.6870     2.6710     0.4230 ca         1 GYR      -0.128000
     13 CAF         -2.6660     3.6090     0.3470 ca         1 GYR      -0.035300
     14 CAG         -2.9810     5.0710     0.2160 c3         1 GYR      -0.049800
     15 CAE         -1.3390     3.1830     0.4220 ca         1 GYR      -0.191000
     16 CAD         -1.0380     1.8330     0.5780 ca         1 GYR       0.150100
     17 CAC         -2.0710     0.8980     0.6460 ca         1 GYR      -0.123000
     18 OAH          0.2100     1.3360     0.6720 os         1 GYR      -0.341100
     19 CAL          1.3150     2.2330     0.6100 c3         1 GYR       0.213900
     20 CAM          2.5550     1.4150     0.7930 ca         1 GYR      -0.099300
     21 CAS          3.1310     0.7480    -0.2870 ca         1 GYR      -0.089000
     22 CAT          4.2520    -0.0450    -0.1110 ca         1 GYR      -0.102000
     23 CAU          4.8240    -0.1970     1.1510 ca         1 GYR      -0.074300
     24 CAV          4.2550     0.4750     2.2260 ca         1 GYR      -0.102000
     25 CAW          3.1290     1.2700     2.0500 ca         1 GYR      -0.089000
     26 CAX          6.0240    -1.0930     1.3230 c3         1 GYR       0.235100
     27 NAY          7.0320    -0.8170     0.3360 n3         1 GYR      -0.747600
     28 CAZ          7.9720    -1.8770     0.0190 c5         1 GYR       0.198500
     29 CBD          7.3280    -3.0630    -0.6750 c3         1 GYR       0.168600
     30 OBE          6.6500    -2.6470    -1.8360 oh         1 GYR      -0.641000
     31 CBA          9.0070    -1.1400    -0.8230 c5         1 GYR      -0.078400
     32 CBB          9.1380     0.2050    -0.1080 c5         1 GYR      -0.088400
     33 CBC          7.7680     0.4190     0.5580 c5         1 GYR       0.181800
     34 HAI1        -5.3940     0.6990     1.1180 h1         1 GYR       0.098700
     35 HAI2        -4.1870    -0.6010     1.1680 h1         1 GYR       0.098700
     36 HAR         -7.8080     0.0350    -0.7780 ha         1 GYR       0.137000
     37 HAN         -4.7950    -3.0370    -0.7270 ha         1 GYR       0.137000
     38 HAQ         -9.5420    -1.6730    -0.3870 ha         1 GYR       0.120500
     39 HAP         -8.9120    -4.0520    -0.1670 ha         1 GYR       0.117000
     40 HAO         -6.5430    -4.7310    -0.3390 ha         1 GYR       0.120500
     41 HAA         -4.7200     2.9950     0.3720 ha         1 GYR       0.122000
     42 HAC         -1.8340    -0.1510     0.7700 ha         1 GYR       0.134000
     43 HAG1        -3.1950     5.5100     1.1920 hc         1 GYR       0.044367
     44 HAG2        -2.1480     5.6260    -0.2150 hc         1 GYR       0.044367
     45 HAG3        -3.8570     5.2350    -0.4100 hc         1 GYR       0.044367
     46 HAE         -0.5550     3.9260     0.3630 ha         1 GYR       0.116000
     47 HAL1         1.3270     2.7490    -0.3560 h1         1 GYR       0.040200
     48 HAL2         1.2340     2.9930     1.3940 h1         1 GYR       0.040200
     49 HAS          2.7000     0.8560    -1.2760 ha         1 GYR       0.114000
     50 HAW          2.7010     1.7900     2.9000 ha         1 GYR       0.114000
     51 HAT          4.7020    -0.5550    -0.9540 ha         1 GYR       0.124500
     52 HAV          4.6940     0.3790     3.2120 ha         1 GYR       0.124500
     53 HAX1         6.4070    -1.0030     2.3540 h1         1 GYR       0.034200
     54 HAX2         5.6920    -2.1290     1.2140 h1         1 GYR       0.034200
     55 HAZ          8.4700    -2.2800     0.9210 h1         1 GYR       0.021700
     56 HBC1         7.2260     1.2700     0.1350 h1         1 GYR       0.036700
     57 HBC2         7.8940     0.6290     1.6300 h1         1 GYR       0.036700
     58 HBD1         8.1260    -3.7830    -0.9020 h1         1 GYR       0.015700
     59 HBD2         6.6480    -3.5740     0.0210 h1         1 GYR       0.015700
     60 HBA1         9.9500    -1.6840    -0.8860 hc         1 GYR       0.057700
     61 HBA2         8.6290    -1.0060    -1.8380 hc         1 GYR       0.057700
     62 HBE          6.3560    -3.4340    -2.3020 ho         1 GYR       0.436000
     63 HBB1         9.9170     0.1490     0.6530 hc         1 GYR       0.044200
     64 HBB2         9.4060     1.0150    -0.7850 hc         1 GYR       0.044200
@<TRIPOS>BOND
     1     1     2 2   
     2     2     3 2   
     3     2     4 1   
     4     2    10 1   
     5     4     5 ar  
     6     4     9 ar  
     7     5     6 ar  
     8     5    36 1   
     9     6     7 ar  
    10     6    38 1   
    11     7     8 ar  
    12     7    39 1   
    13     8     9 ar  
    14     8    40 1   
    15     9    37 1   
    16    10    11 1   
    17    10    34 1   
    18    10    35 1   
    19    11    12 ar  
    20    11    17 ar  
    21    12    13 ar  
    22    12    41 1   
    23    13    14 1   
    24    13    15 ar  
    25    14    43 1   
    26    14    44 1   
    27    14    45 1   
    28    15    16 ar  
    29    15    46 1   
    30    16    17 ar  
    31    16    18 1   
    32    17    42 1   
    33    18    19 1   
    34    19    20 1   
    35    19    47 1   
    36    19    48 1   
    37    20    21 ar  
    38    20    25 ar  
    39    21    22 ar  
    40    21    49 1   
    41    22    23 ar  
    42    22    51 1   
    43    23    24 ar  
    44    23    26 1   
    45    24    25 ar  
    46    24    52 1   
    47    25    50 1   
    48    26    27 1   
    49    26    53 1   
    50    26    54 1   
    51    27    28 1   
    52    27    33 1   
    53    28    29 1   
    54    28    31 1   
    55    28    55 1   
    56    29    30 1   
    57    29    58 1   
    58    29    59 1   
    59    30    62 1   
    60    31    32 1   
    61    31    60 1   
    62    31    61 1   
    63    32    33 1   
    64    32    63 1   
    65    32    64 1   
    66    33    56 1   
    67    33    57 1   
@<TRIPOS>SUBSTRUCTURE
     1 GYR         1 TEMP              0 ****  ****    0 ROOT
