@<TRIPOS>MOLECULE
GYR
   64    67     1     0     0
SMALL
No Charge or Current Charge


@<TRIPOS>ATOM
      1 OBG         -4.1900    -0.9920    -1.6100 o          1 GYR      -0.515500
      2 SAJ         -5.2800    -0.1880    -1.0400 sy         1 GYR       1.034500
      3 OBF         -5.8180     0.9790    -1.7530 o          1 GYR      -0.515500
      4 CAK         -6.6500    -1.2900    -0.6250 ca         1 GYR      -0.268500
      5 CAR         -7.9620    -0.7810    -0.5220 ca         1 GYR      -0.017500
      6 CAQ         -9.0250    -1.6390    -0.1890 ca         1 GYR      -0.128500
      7 CAP         -8.7840    -3.0040     0.0440 ca         1 GYR      -0.057000
      8 CAO         -7.4780    -3.5120    -0.0540 ca         1 GYR      -0.128500
      9 CAN         -6.4110    -2.6600    -0.3860 ca         1 GYR      -0.017500
     10 CAI         -4.7210     0.3900     0.5810 c3         1 GYR      -0.229100
     11 CAB         -3.5430     1.3510     0.4880 ca         1 GYR      -0.049300
     12 CAA         -3.7650     2.7360     0.3770 ca         1 GYR      -0.128000
     13 CAF         -2.6810     3.6290     0.2950 ca         1 GYR      -0.035300
     14 CAG         -2.9300     5.1250     0.1760 c3         1 GYR      -0.049800
     15 CAE         -1.3650     3.1320     0.3310 ca         1 GYR      -0.191000
     16 CAD         -1.1340     1.7440     0.4450 ca         1 GYR       0.150100
     17 CAC         -2.2250     0.8640     0.5230 ca         1 GYR      -0.123000
     18 OAH          0.1350     1.2030     0.4850 os         1 GYR      -0.341100
     19 CAL          1.3180     2.0160     0.4120 c3         1 GYR       0.213900
     20 CAM          2.5360     1.1050     0.4830 ca         1 GYR      -0.099300
     21 CAS          3.1090     0.5900    -0.6950 ca         1 GYR      -0.089000
     22 CAT          4.2350    -0.2490    -0.6280 ca         1 GYR      -0.102000
     23 CAU          4.8010    -0.5840     0.6170 ca         1 GYR      -0.074300
     24 CAV          4.2270    -0.0690     1.7960 ca         1 GYR      -0.102000
     25 CAW          3.1010     0.7700     1.7290 ca         1 GYR      -0.089000
     26 CAX          6.0240    -1.4950     0.6830 c3         1 GYR       0.235100
     27 NAY          7.2610    -0.8460     0.1920 n3         1 GYR      -0.747600
     28 CAZ          8.4940    -1.6790     0.2270 c5         1 GYR       0.198500
     29 CBD          8.4770    -3.0410    -0.5510 c3         1 GYR       0.168600
     30 OBE          8.1540    -2.8910    -1.9470 oh         1 GYR      -0.641000
     31 CBA          9.5240    -0.6470    -0.3100 c5         1 GYR      -0.078400
     32 CBB          9.0710     0.6910     0.3540 c5         1 GYR      -0.088400
     33 CBC          7.6600     0.3760     0.9290 c5         1 GYR       0.181800
     34 HAI1        -5.5790     0.8750     1.0600 h1         1 GYR       0.098700
     35 HAI2        -4.4500    -0.4990     1.1610 h1         1 GYR       0.098700
     36 HAR         -8.1650     0.2750    -0.6970 ha         1 GYR       0.137000
     37 HAN         -5.4030    -3.0690    -0.4560 ha         1 GYR       0.137000
     38 HAQ        -10.0350    -1.2450    -0.1110 ha         1 GYR       0.120500
     39 HAP         -9.6090    -3.6660     0.3020 ha         1 GYR       0.117000
     40 HAO         -7.2920    -4.5680     0.1290 ha         1 GYR       0.120500
     41 HAA         -4.7830     3.1190     0.3530 ha         1 GYR       0.122000
     42 HAC         -2.0400    -0.2040     0.6110 ha         1 GYR       0.134000
     43 HAG1        -2.9440     5.5980     1.1650 hc         1 GYR       0.044367
     44 HAG2        -2.1490     5.6140    -0.4190 hc         1 GYR       0.044367
     45 HAG3        -3.8910     5.3340    -0.3100 hc         1 GYR       0.044367
     46 HAE         -0.5390     3.8350     0.2700 ha         1 GYR       0.116000
     47 HAL1         1.3390     2.5830    -0.5280 h1         1 GYR       0.040200
     48 HAL2         1.3470     2.7320     1.2440 h1         1 GYR       0.040200
     49 HAS          2.6820     0.8390    -1.6640 ha         1 GYR       0.114000
     50 HAW          2.6660     1.1600     2.6470 ha         1 GYR       0.114000
     51 HAT          4.6740    -0.6390    -1.5440 ha         1 GYR       0.124500
     52 HAV          4.6540    -0.3170     2.7650 ha         1 GYR       0.124500
     53 HAX1         6.1650    -1.8340     1.7190 h1         1 GYR       0.034200
     54 HAX2         5.8090    -2.3900     0.0830 h1         1 GYR       0.034200
     55 HAZ          8.7390    -1.9250     1.2710 h1         1 GYR       0.021700
     56 HBC1         6.9600     1.2080     0.7750 h1         1 GYR       0.036700
     57 HBC2         7.7190     0.1810     2.0100 h1         1 GYR       0.036700
     58 HBD1         9.4650    -3.5090    -0.4460 h1         1 GYR       0.015700
     59 HBD2         7.7510    -3.7100    -0.0700 h1         1 GYR       0.015700
     60 HBA1        10.5530    -0.9170    -0.0480 hc         1 GYR       0.057700
     61 HBA2         9.4780    -0.5690    -1.4020 hc         1 GYR       0.057700
     62 HBE          8.1180    -3.7940    -2.3290 ho         1 GYR       0.436000
     63 HBB1         9.7570     1.0110     1.1470 hc         1 GYR       0.044200
     64 HBB2         9.0310     1.5010    -0.3830 hc         1 GYR       0.044200
@<TRIPOS>BOND
     1     1     2 2   
     2     2     3 2   
     3     2     4 1   
     4     2    10 1   
     5     4     5 ar  
     6     4     9 ar  
     7     5     6 ar  
     8     5    36 1   
     9     6     7 ar  
    10     6    38 1   
    11     7     8 ar  
    12     7    39 1   
    13     8     9 ar  
    14     8    40 1   
    15     9    37 1   
    16    10    11 1   
    17    10    34 1   
    18    10    35 1   
    19    11    12 ar  
    20    11    17 ar  
    21    12    13 ar  
    22    12    41 1   
    23    13    14 1   
    24    13    15 ar  
    25    14    43 1   
    26    14    44 1   
    27    14    45 1   
    28    15    16 ar  
    29    15    46 1   
    30    16    17 ar  
    31    16    18 1   
    32    17    42 1   
    33    18    19 1   
    34    19    20 1   
    35    19    47 1   
    36    19    48 1   
    37    20    21 ar  
    38    20    25 ar  
    39    21    22 ar  
    40    21    49 1   
    41    22    23 ar  
    42    22    51 1   
    43    23    24 ar  
    44    23    26 1   
    45    24    25 ar  
    46    24    52 1   
    47    25    50 1   
    48    26    27 1   
    49    26    53 1   
    50    26    54 1   
    51    27    28 1   
    52    27    33 1   
    53    28    29 1   
    54    28    31 1   
    55    28    55 1   
    56    29    30 1   
    57    29    58 1   
    58    29    59 1   
    59    30    62 1   
    60    31    32 1   
    61    31    60 1   
    62    31    61 1   
    63    32    33 1   
    64    32    63 1   
    65    32    64 1   
    66    33    56 1   
    67    33    57 1   
@<TRIPOS>SUBSTRUCTURE
     1 GYR         1 TEMP              0 ****  ****    0 ROOT
