@<TRIPOS>MOLECULE
GYS
   36    37     1     0     0
SMALL
abcg2


@<TRIPOS>ATOM
      1 N           -1.1990    -2.7800    -1.5780 n8         1 GYS      -0.990200
      2 OG1         -3.2690    -3.5160     0.3360 oh         1 GYS      -0.680000
      3 CB1         -2.4780    -2.3690     0.5440 c3         1 GYS       0.109600
      4 CA1         -2.0310    -1.8580    -0.8310 c3         1 GYS       0.138200
      5 C1          -1.2940    -0.5690    -0.6400 cc         1 GYS       0.501900
      6 N2          -0.0240    -0.5200    -0.4190 nd         1 GYS      -0.668300
      7 N3          -1.9100     0.6600    -0.6610 n          1 GYS      -0.301300
      8 C2          -0.9570     1.6140    -0.3860 c          1 GYS       0.541200
      9 O2          -1.1490     2.8120    -0.3040 o          1 GYS      -0.505000
     10 CA2          0.2870     0.8240    -0.2560 cd         1 GYS       0.033400
     11 CA3         -3.3160     0.9680    -0.7290 c3         1 GYS      -0.054000
     12 CB2          1.4900     1.3880    -0.0320 ce         1 GYS      -0.104200
     13 CG2          2.7910     0.7730     0.0970 ca         1 GYS      -0.071800
     14 CD1          3.8960     1.6060     0.3140 ca         1 GYS      -0.053000
     15 CD2          3.0260    -0.6090     0.0130 ca         1 GYS      -0.053000
     16 CE1          5.1750     1.1000     0.4440 ca         1 GYS      -0.189000
     17 CE2          4.2980    -1.1250     0.1420 ca         1 GYS      -0.189000
     18 CZ           5.3860    -0.2760     0.3580 ca         1 GYS       0.128100
     19 OH           6.6000    -0.8330     0.4740 oh         1 GYS      -0.540100
     20 C           -3.9740     1.1680     0.6550 c          1 GYS       0.714000
     21 O           -3.2740     0.9490     1.6570 o          1 GYS      -0.717000
     22 OXT         -5.1640     1.5270     0.6090 o          1 GYS      -0.717000
     23 HN1         -0.3470    -2.9620    -1.0610 hn         1 GYS       0.401500
     24 HN2         -1.6820    -3.6670    -1.6510 hn         1 GYS       0.401500
     25 HA1         -2.9310    -1.6660    -1.4250 h1         1 GYS       0.089700
     26 HB11        -3.0280    -1.5840     1.0790 h1         1 GYS       0.058700
     27 HB12        -1.5790    -2.5940     1.1330 h1         1 GYS       0.058700
     28 HG1         -3.4080    -3.9440     1.1850 ho         1 GYS       0.442000
     29 HB2          1.4780     2.4700     0.0600 ha         1 GYS       0.184000
     30 HD2          2.1970    -1.2820    -0.1540 ha         1 GYS       0.131500
     31 HE2          4.4600    -2.1940     0.0750 ha         1 GYS       0.111000
     32 HOH          7.2720    -0.1560     0.6200 ho         1 GYS       0.457000
     33 HE1          6.0080     1.7720     0.6100 ha         1 GYS       0.111000
     34 HD1          3.7500     2.6780     0.3820 ha         1 GYS       0.131500
     35 HA31        -3.4400     1.8720    -1.3270 h1         1 GYS       0.046200
     36 HA32        -3.8330     0.1750    -1.2720 h1         1 GYS       0.046200
@<TRIPOS>BOND
     1     1     4 1   
     2     1    23 1   
     3     1    24 1   
     4     2     3 1   
     5     2    28 1   
     6     3     4 1   
     7     3    26 1   
     8     3    27 1   
     9     4     5 1   
    10     4    25 1   
    11     5     6 2   
    12     5     7 1   
    13     6    10 1   
    14     7     8 1   
    15     7    11 1   
    16     8     9 2   
    17     8    10 1   
    18    10    12 2   
    19    11    20 1   
    20    11    35 1   
    21    11    36 1   
    22    12    13 1   
    23    12    29 1   
    24    13    14 ar  
    25    13    15 ar  
    26    14    16 ar  
    27    14    34 1   
    28    15    17 ar  
    29    15    30 1   
    30    16    18 ar  
    31    16    33 1   
    32    17    18 ar  
    33    17    31 1   
    34    18    19 1   
    35    19    32 1   
    36    20    21 1   
    37    20    22 1   
@<TRIPOS>SUBSTRUCTURE
     1 GYS         1 TEMP              0 ****  ****    0 ROOT
