@<TRIPOS>MOLECULE
GYS
   36    37     1     0     0
SMALL
No Charge or Current Charge


@<TRIPOS>ATOM
      1 N           -1.8710    -2.6940    -1.6570 n8         1 GYS      -0.990200
      2 OG1         -2.6500    -3.8180     0.8270 oh         1 GYS      -0.680000
      3 CB1         -1.9480    -2.5560     0.8510 c3         1 GYS       0.109600
      4 CA1         -2.1490    -1.7860    -0.4870 c3         1 GYS       0.138200
      5 C1          -1.3630    -0.4630    -0.5020 cc         1 GYS       0.501900
      6 N2          -0.0320    -0.4160    -0.3220 nd         1 GYS      -0.668300
      7 N3          -1.9400     0.7800    -0.7330 n          1 GYS      -0.301300
      8 C2          -0.9740     1.7550    -0.6970 c          1 GYS       0.541200
      9 O2          -1.1080     2.9650    -0.8410 o          1 GYS      -0.505000
     10 CA2          0.2330     0.9460    -0.4380 cd         1 GYS       0.033400
     11 CA3         -3.3830     1.0800    -0.9510 c3         1 GYS      -0.054000
     12 CB2          1.5050     1.4680    -0.2970 ce         1 GYS      -0.104200
     13 CG2          2.8180     0.8020    -0.0390 ca         1 GYS      -0.071800
     14 CD1          3.8120     1.5040     0.6740 ca         1 GYS      -0.053000
     15 CD2          3.1050    -0.4950    -0.5150 ca         1 GYS      -0.053000
     16 CE1          5.0640     0.9130     0.9240 ca         1 GYS      -0.189000
     17 CE2          4.3580    -1.0830    -0.2650 ca         1 GYS      -0.189000
     18 CZ           5.3340    -0.3820     0.4550 ca         1 GYS       0.128100
     19 OH           6.5440    -0.9590     0.6920 oh         1 GYS      -0.540100
     20 C           -4.2030     1.2370     0.3500 c          1 GYS       0.714000
     21 O           -4.0920     0.3760     1.2110 o          1 GYS      -0.717000
     22 OXT         -4.8970     2.2350     0.4780 o          1 GYS      -0.717000
     23 HN1         -0.8610    -2.8800    -1.6850 hn         1 GYS       0.401500
     24 HN2         -2.2660    -3.6100    -1.4070 hn         1 GYS       0.401500
     25 HA1         -3.2180    -1.5400    -0.5250 h1         1 GYS       0.089700
     26 HB11        -2.3080    -1.9270     1.6780 h1         1 GYS       0.058700
     27 HB12        -0.8730    -2.7240     1.0110 h1         1 GYS       0.058700
     28 HG1         -2.5120    -4.2450     1.7030 ho         1 GYS       0.442000
     29 HB2          1.5540     2.5570    -0.3530 ha         1 GYS       0.184000
     30 HD2          2.3670    -1.0460    -1.0910 ha         1 GYS       0.131500
     31 HE2          4.5700    -2.0830    -0.6350 ha         1 GYS       0.111000
     32 HOH          7.0930    -0.3260     1.2030 ho         1 GYS       0.457000
     33 HE1          5.8170     1.4670     1.4800 ha         1 GYS       0.111000
     34 HD1          3.6120     2.5080     1.0410 ha         1 GYS       0.131500
     35 HA31        -3.4730     2.0080    -1.5280 h1         1 GYS       0.046200
     36 HA32        -3.8390     0.2820    -1.5480 h1         1 GYS       0.046200
@<TRIPOS>BOND
     1     1     4 1   
     2     1    23 1   
     3     1    24 1   
     4     2     3 1   
     5     2    28 1   
     6     3     4 1   
     7     3    26 1   
     8     3    27 1   
     9     4     5 1   
    10     4    25 1   
    11     5     6 2   
    12     5     7 1   
    13     6    10 1   
    14     7     8 1   
    15     7    11 1   
    16     8     9 2   
    17     8    10 1   
    18    10    12 2   
    19    11    20 1   
    20    11    35 1   
    21    11    36 1   
    22    12    13 1   
    23    12    29 1   
    24    13    14 ar  
    25    13    15 ar  
    26    14    16 ar  
    27    14    34 1   
    28    15    17 ar  
    29    15    30 1   
    30    16    18 ar  
    31    16    33 1   
    32    17    18 ar  
    33    17    31 1   
    34    18    19 1   
    35    19    32 1   
    36    20    21 1   
    37    20    22 1   
@<TRIPOS>SUBSTRUCTURE
     1 GYS         1 TEMP              0 ****  ****    0 ROOT
