@<TRIPOS>MOLECULE
GYT
   99   100     1     0     0
SMALL
No Charge or Current Charge


@<TRIPOS>ATOM
      1 CBV          0.4620    -4.5520   -10.9260 c3         1 GYT      -0.179600
      2 CBU         -0.2410    -3.3760   -10.2640 c          1 GYT       0.608100
      3 OBW         -1.4570    -3.2990   -10.1730 o          1 GYT      -0.628600
      4 NBT          0.5920    -2.4040    -9.7680 ns         1 GYT      -0.485400
      5 CBS          0.1510    -1.1500    -9.1140 c6         1 GYT       0.047700
      6 CBQ          1.3380    -0.1460    -8.9780 c6         1 GYT       0.119800
      7 OBR          1.9270     0.1430   -10.2600 oh         1 GYT      -0.665000
      8 CBO          0.8700     1.1710    -8.2890 c6         1 GYT       0.114800
      9 OBP          1.9870     2.0600    -8.1330 oh         1 GYT      -0.709000
     10 CBL          0.2180     0.8170    -6.9250 c6         1 GYT       0.124300
     11 CBM         -0.3860     2.0370    -6.1770 c3         1 GYT       0.177600
     12 OBN         -1.2840     1.5880    -5.1490 oh         1 GYT      -0.707500
     13 OBK         -0.8670    -0.1280    -7.1270 os         1 GYT      -0.455000
     14 CBJ         -0.4750    -1.3960    -7.7030 c6         1 GYT       0.400800
     15 OBI          0.4650    -2.0360    -6.8240 os         1 GYT      -0.515600
     16 CAA          0.1050    -2.3240    -5.5500 c          1 GYT       0.642100
     17 OAB         -1.0060    -2.1820    -5.0680 o          1 GYT      -0.505000
     18 NAC          1.2470    -2.5450    -4.8370 ns         1 GYT      -0.501400
     19 CAD          1.3460    -2.4090    -3.3840 c3         1 GYT       0.118500
     20 CAE          1.3540    -0.9240    -2.9550 c3         1 GYT      -0.116400
     21 CAF          2.5540    -0.1350    -3.5140 c3         1 GYT       0.167100
     22 OAG          2.3700     1.2500    -3.1870 os         1 GYT      -0.435500
     23 CAH          3.4530     2.1020    -3.6110 c3         1 GYT       0.161600
     24 CAI          3.0980     3.5810    -3.3200 c3         1 GYT       0.164600
     25 OAJ          2.1920     4.0570    -4.3360 os         1 GYT      -0.437000
     26 CAK          1.8690     5.4590    -4.2410 c3         1 GYT       0.164600
     27 CAL          0.9580     5.8550    -5.4290 c3         1 GYT       0.161600
     28 OAM         -0.3800     5.3790    -5.1830 os         1 GYT      -0.435500
     29 CAN         -1.3180     5.6740    -6.2280 c3         1 GYT       0.167100
     30 CAO         -2.6860     5.1190    -5.7920 c3         1 GYT      -0.116400
     31 CAP         -3.8250     5.4040    -6.7930 c3         1 GYT       0.118500
     32 NAQ         -3.5720     4.8840    -8.1400 ns         1 GYT      -0.501400
     33 CAR         -3.5110     3.5630    -8.4770 c          1 GYT       0.642100
     34 OAS         -3.6390     2.6270    -7.7060 o          1 GYT      -0.505000
     35 O1          -3.2920     3.4720    -9.8110 os         1 GYT      -0.515600
     36 C1          -3.1890     2.1810   -10.4310 c6         1 GYT       0.400800
     37 O5          -4.4700     1.5110   -10.3630 os         1 GYT      -0.455000
     38 C5          -5.5470     2.1610   -11.0890 c6         1 GYT       0.124300
     39 C6          -6.8370     1.3350   -10.8170 c3         1 GYT       0.177600
     40 O6          -6.9370     0.9890    -9.4260 oh         1 GYT      -0.707500
     41 C4          -5.1880     2.2500   -12.5980 c6         1 GYT       0.114800
     42 O4          -6.2080     2.9190   -13.3560 oh         1 GYT      -0.709000
     43 C3          -3.8400     3.0050   -12.7570 c6         1 GYT       0.119800
     44 O3          -3.4790     3.0620   -14.1520 oh         1 GYT      -0.665000
     45 C2          -2.7240     2.3150   -11.9180 c6         1 GYT       0.047700
     46 N2          -1.4460     3.0610   -12.0260 ns         1 GYT      -0.485400
     47 CAX         -0.2000     2.5200   -11.8360 c          1 GYT       0.608100
     48 CAZ          0.9530     3.5070   -11.9030 c3         1 GYT      -0.179600
     49 OAY         -0.0350     1.3290   -11.6190 o          1 GYT      -0.628600
     50 HBV1         1.1770    -4.9850   -10.2170 hc         1 GYT       0.063867
     51 HBV2        -0.2390    -5.3040   -11.3040 hc         1 GYT       0.063867
     52 HBV3         1.1190    -4.1750   -11.7190 hc         1 GYT       0.063867
     53 HBT          1.5860    -2.5480    -9.9050 hn         1 GYT       0.325000
     54 HBS         -0.6250    -0.6930    -9.7450 h1         1 GYT       0.105200
     55 HBQ          2.0950    -0.6130    -8.3270 h1         1 GYT       0.089200
     56 HBJ         -1.3660    -2.0350    -7.8140 h2         1 GYT       0.117200
     57 HBR          1.1950     0.5100   -10.8300 ho         1 GYT       0.466500
     58 HBO          0.1050     1.6460    -8.9210 h1         1 GYT       0.040700
     59 HBP          2.5690     1.8840    -8.9100 ho         1 GYT       0.517500
     60 HBL          0.9730     0.3650    -6.2660 h1         1 GYT       0.068200
     61 HBM1        -0.9200     2.6610    -6.9050 h1         1 GYT       0.055450
     62 HBM2         0.4290     2.6390    -5.7540 h1         1 GYT       0.055450
     63 HBN         -1.6300     0.7340    -5.5040 ho         1 GYT       0.521000
     64 HAC          2.0970    -2.5930    -5.3820 hn         1 GYT       0.318500
     65 HAD1         2.2680    -2.8980    -3.0430 h1         1 GYT       0.057450
     66 HAD2         0.4960    -2.9240    -2.9170 h1         1 GYT       0.057450
     67 HAE1         0.4230    -0.4480    -3.2850 hc         1 GYT       0.078200
     68 HAE2         1.3700    -0.8690    -1.8600 hc         1 GYT       0.078200
     69 HAF1         3.4830    -0.5200    -3.0730 h1         1 GYT       0.010450
     70 HAF2         2.6100    -0.2590    -4.6030 h1         1 GYT       0.010450
     71 HAH1         4.3690     1.8440    -3.0630 h1         1 GYT       0.026700
     72 HAH2         3.6540     1.9800    -4.6840 h1         1 GYT       0.026700
     73 HAI1         4.0240     4.1700    -3.3360 h1         1 GYT       0.027450
     74 HAI2         2.6540     3.6690    -2.3200 h1         1 GYT       0.027450
     75 HAK1         1.3630     5.6850    -3.2930 h1         1 GYT       0.027450
     76 HAK2         2.7860     6.0610    -4.2890 h1         1 GYT       0.027450
     77 HAL1         1.3620     5.4330    -6.3590 h1         1 GYT       0.026700
     78 HAL2         0.9570     6.9480    -5.5230 h1         1 GYT       0.026700
     79 HAN1        -1.0060     5.2030    -7.1690 h1         1 GYT       0.010450
     80 HAN2        -1.3930     6.7580    -6.3860 h1         1 GYT       0.010450
     81 HAO1        -2.9560     5.5600    -4.8250 hc         1 GYT       0.078200
     82 HAO2        -2.6050     4.0390    -5.6310 hc         1 GYT       0.078200
     83 HAP1        -4.7580     4.9610    -6.4170 h1         1 GYT       0.057450
     84 HAP2        -3.9790     6.4890    -6.8660 h1         1 GYT       0.057450
     85 HAQ         -3.4530     5.5360    -8.9040 hn         1 GYT       0.318500
     86 H1          -2.4400     1.5810    -9.8900 h2         1 GYT       0.117200
     87 H2          -2.5700     1.2980   -12.3110 h1         1 GYT       0.105200
     88 H5          -5.6950     3.1720   -10.6830 h1         1 GYT       0.068200
     89 H6C1        -6.8020     0.4250   -11.4320 h1         1 GYT       0.055450
     90 H6C2        -7.7100     1.9190   -11.1400 h1         1 GYT       0.055450
     91 H4          -5.0570     1.2260   -12.9800 h1         1 GYT       0.040700
     92 H6          -5.9970     0.9250    -9.1290 ho         1 GYT       0.521000
     93 HA          -5.7540     3.1950   -14.1900 ho         1 GYT       0.517500
     94 H3          -3.9740     4.0260   -12.3630 h1         1 GYT       0.089200
     95 HB          -2.5090     3.2200   -14.1910 ho         1 GYT       0.466500
     96 HC          -1.4820     4.0690   -12.1330 hn         1 GYT       0.325000
     97 HAZ1         1.9280     3.0270   -11.7620 hc         1 GYT       0.063867
     98 HAZ2         0.9020     4.0540   -12.8510 hc         1 GYT       0.063867
     99 HAZ3         0.7840     4.3000   -11.1650 hc         1 GYT       0.063867
@<TRIPOS>BOND
     1     1     2 1   
     2     1    50 1   
     3     1    51 1   
     4     1    52 1   
     5     2     3 2   
     6     2     4 1   
     7     4     5 1   
     8     4    53 1   
     9     5     6 1   
    10     5    14 1   
    11     5    54 1   
    12     6     7 1   
    13     6     8 1   
    14     6    55 1   
    15     7    57 1   
    16     8     9 1   
    17     8    10 1   
    18     8    58 1   
    19     9    59 1   
    20    10    11 1   
    21    10    13 1   
    22    10    60 1   
    23    11    12 1   
    24    11    61 1   
    25    11    62 1   
    26    12    63 1   
    27    13    14 1   
    28    14    15 1   
    29    14    56 1   
    30    15    16 1   
    31    16    17 2   
    32    16    18 1   
    33    18    19 1   
    34    18    64 1   
    35    19    20 1   
    36    19    65 1   
    37    19    66 1   
    38    20    21 1   
    39    20    67 1   
    40    20    68 1   
    41    21    22 1   
    42    21    69 1   
    43    21    70 1   
    44    22    23 1   
    45    23    24 1   
    46    23    71 1   
    47    23    72 1   
    48    24    25 1   
    49    24    73 1   
    50    24    74 1   
    51    25    26 1   
    52    26    27 1   
    53    26    75 1   
    54    26    76 1   
    55    27    28 1   
    56    27    77 1   
    57    27    78 1   
    58    28    29 1   
    59    29    30 1   
    60    29    79 1   
    61    29    80 1   
    62    30    31 1   
    63    30    81 1   
    64    30    82 1   
    65    31    32 1   
    66    31    83 1   
    67    31    84 1   
    68    32    33 1   
    69    32    85 1   
    70    33    34 2   
    71    33    35 1   
    72    35    36 1   
    73    36    37 1   
    74    36    45 1   
    75    36    86 1   
    76    37    38 1   
    77    38    39 1   
    78    38    41 1   
    79    38    88 1   
    80    39    40 1   
    81    39    89 1   
    82    39    90 1   
    83    40    92 1   
    84    41    42 1   
    85    41    43 1   
    86    41    91 1   
    87    42    93 1   
    88    43    44 1   
    89    43    45 1   
    90    43    94 1   
    91    44    95 1   
    92    45    46 1   
    93    45    87 1   
    94    46    47 1   
    95    46    96 1   
    96    47    48 1   
    97    47    49 2   
    98    48    97 1   
    99    48    98 1   
   100    48    99 1   
@<TRIPOS>SUBSTRUCTURE
     1 GYT         1 TEMP              0 ****  ****    0 ROOT
