@<TRIPOS>MOLECULE
GYT
   99   100     1     0     0
SMALL
abcg2


@<TRIPOS>ATOM
      1 CBV         -0.1330    -3.8670   -11.5970 c3         1 GYT      -0.179600
      2 CBU         -0.5010    -2.5440   -10.9780 c          1 GYT       0.608100
      3 OBW         -1.5340    -1.9550   -11.2670 o          1 GYT      -0.628600
      4 NBT          0.3780    -2.0680   -10.0720 ns         1 GYT      -0.485400
      5 CBS          0.1710    -0.8300    -9.3750 c6         1 GYT       0.047700
      6 CBQ          1.4800    -0.0800    -9.1240 c6         1 GYT       0.119800
      7 OBR          2.2050     0.1530   -10.3040 oh         1 GYT      -0.665000
      8 CBO          1.1760     1.2310    -8.3890 c6         1 GYT       0.114800
      9 OBP          2.3530     1.8910    -8.0100 oh         1 GYT      -0.709000
     10 CBL          0.3480     0.9790    -7.1350 c6         1 GYT       0.124300
     11 CBM         -0.1540     2.2610    -6.4880 c3         1 GYT       0.177600
     12 OBN         -1.0150     2.0000    -5.4120 oh         1 GYT      -0.707500
     13 OBK         -0.8100     0.2220    -7.4670 os         1 GYT      -0.455000
     14 CBJ         -0.5930    -1.0090    -8.0650 c6         1 GYT       0.400800
     15 OBI          0.1940    -1.8540    -7.2420 os         1 GYT      -0.515600
     16 CAA         -0.2280    -2.0220    -5.9650 c          1 GYT       0.642100
     17 OAB         -1.3870    -1.9580    -5.6280 o          1 GYT      -0.505000
     18 NAC          0.8160    -2.2760    -5.1560 ns         1 GYT      -0.501400
     19 CAD          0.7180    -2.0860    -3.7200 c3         1 GYT       0.118500
     20 CAE          0.7700    -0.6120    -3.3170 c3         1 GYT      -0.116400
     21 CAF          2.0990     0.0320    -3.6700 c3         1 GYT       0.167100
     22 OAG          2.0510     1.4090    -3.3930 os         1 GYT      -0.435500
     23 CAH          3.2030     2.0800    -3.8410 c3         1 GYT       0.161600
     24 CAI          3.0650     3.5680    -3.6380 c3         1 GYT       0.164600
     25 OAJ          2.0800     4.0770    -4.4990 os         1 GYT      -0.437000
     26 CAK          2.0010     5.4780    -4.4950 c3         1 GYT       0.164600
     27 CAL          0.9830     5.9310    -5.5130 c3         1 GYT       0.161600
     28 OAM         -0.3010     5.5400    -5.1060 os         1 GYT      -0.435500
     29 CAN         -1.3000     5.7920    -6.0630 c3         1 GYT       0.167100
     30 CAO         -2.6060     5.2130    -5.5530 c3         1 GYT      -0.116400
     31 CAP         -3.7670     5.3740    -6.5280 c3         1 GYT       0.118500
     32 NAQ         -3.5420     4.8020    -7.8410 ns         1 GYT      -0.501400
     33 CAR         -3.5140     3.4840    -8.0660 c          1 GYT       0.642100
     34 OAS         -3.6500     2.6150    -7.2320 o          1 GYT      -0.505000
     35 O1          -3.3080     3.2340    -9.3810 os         1 GYT      -0.515600
     36 C1          -3.0910     1.8910    -9.7730 c6         1 GYT       0.400800
     37 O5          -4.2620     1.1630    -9.8200 os         1 GYT      -0.455000
     38 C5          -5.2410     1.5840   -10.7640 c6         1 GYT       0.124300
     39 C6          -6.4340     0.6660   -10.5610 c3         1 GYT       0.177600
     40 O6          -6.9920     0.7920    -9.2770 oh         1 GYT      -0.707500
     41 C4          -4.6590     1.5080   -12.1700 c6         1 GYT       0.114800
     42 O4          -5.6390     1.9570   -13.0680 oh         1 GYT      -0.709000
     43 C3          -3.3960     2.3660   -12.2420 c6         1 GYT       0.119800
     44 O3          -2.8040     2.3320   -13.5150 oh         1 GYT      -0.665000
     45 C2          -2.4130     1.9420   -11.1460 c6         1 GYT       0.047700
     46 N2          -1.2600     2.8050   -11.1150 ns         1 GYT      -0.485400
     47 CAX         -0.0460     2.4730   -11.5820 c          1 GYT       0.608100
     48 CAZ          0.9900     3.5620   -11.5330 c3         1 GYT      -0.179600
     49 OAY          0.2240     1.3470   -11.9960 o          1 GYT      -0.628600
     50 HBV1        -0.7830    -4.6440   -11.1930 hc         1 GYT       0.063867
     51 HBV2        -0.3020    -3.8270   -12.6720 hc         1 GYT       0.063867
     52 HBV3         0.9000    -4.1580   -11.4160 hc         1 GYT       0.063867
     53 HBT          1.1910    -2.6180    -9.8460 hn         1 GYT       0.325000
     54 HBS         -0.4660    -0.2070   -10.0070 h1         1 GYT       0.105200
     55 HBQ          2.1350    -0.6810    -8.4840 h1         1 GYT       0.089200
     56 HBJ         -1.5780    -1.4480    -8.2430 h2         1 GYT       0.117200
     57 HBR          1.6080     0.5150   -10.9820 ho         1 GYT       0.466500
     58 HBO          0.5680     1.8650    -9.0580 h1         1 GYT       0.040700
     59 HBP          2.9260     1.9410    -8.7830 ho         1 GYT       0.517500
     60 HBL          0.9640     0.4410    -6.4010 h1         1 GYT       0.068200
     61 HBM1        -0.6380     2.8840    -7.2550 h1         1 GYT       0.055450
     62 HBM2         0.6940     2.8210    -6.1010 h1         1 GYT       0.055450
     63 HBN         -1.8410     1.6590    -5.7700 ho         1 GYT       0.521000
     64 HAC          1.7370    -2.2340    -5.5640 hn         1 GYT       0.318500
     65 HAD1         1.5390    -2.6380    -3.2610 h1         1 GYT       0.057450
     66 HAD2        -0.2050    -2.5390    -3.3630 h1         1 GYT       0.057450
     67 HAE1        -0.0380    -0.0660    -3.8100 hc         1 GYT       0.078200
     68 HAE2         0.5980    -0.5410    -2.2390 hc         1 GYT       0.078200
     69 HAF1         2.9140    -0.4540    -3.1120 h1         1 GYT       0.010450
     70 HAF2         2.3220    -0.1220    -4.7360 h1         1 GYT       0.010450
     71 HAH1         4.0940     1.7400    -3.2940 h1         1 GYT       0.026700
     72 HAH2         3.3830     1.8740    -4.9060 h1         1 GYT       0.026700
     73 HAI1         4.0430     4.0230    -3.8480 h1         1 GYT       0.027450
     74 HAI2         2.8310     3.7920    -2.5870 h1         1 GYT       0.027450
     75 HAK1         1.7340     5.8600    -3.4990 h1         1 GYT       0.027450
     76 HAK2         2.9690     5.9280    -4.7580 h1         1 GYT       0.027450
     77 HAL1         1.2330     5.5060    -6.4950 h1         1 GYT       0.026700
     78 HAL2         1.0560     7.0240    -5.6100 h1         1 GYT       0.026700
     79 HAN1        -1.0300     5.3320    -7.0240 h1         1 GYT       0.010450
     80 HAN2        -1.4050     6.8720    -6.2480 h1         1 GYT       0.010450
     81 HAO1        -2.8910     5.7130    -4.6230 hc         1 GYT       0.078200
     82 HAO2        -2.4590     4.1590    -5.3170 hc         1 GYT       0.078200
     83 HAP1        -4.6670     4.9420    -6.0880 h1         1 GYT       0.057450
     84 HAP2        -3.9760     6.4310    -6.6890 h1         1 GYT       0.057450
     85 HAQ         -3.4010     5.4270    -8.6180 hn         1 GYT       0.318500
     86 H1          -2.4440     1.3910    -9.0490 h2         1 GYT       0.117200
     87 H2          -2.0660     0.9250   -11.3580 h1         1 GYT       0.105200
     88 H5          -5.5510     2.6180   -10.5590 h1         1 GYT       0.068200
     89 H6C1        -6.1310    -0.3680   -10.7780 h1         1 GYT       0.055450
     90 H6C2        -7.2130     0.9330   -11.2750 h1         1 GYT       0.055450
     91 H4          -4.3820     0.4590   -12.3750 h1         1 GYT       0.040700
     92 H6          -6.3150     0.5610    -8.6320 ho         1 GYT       0.521000
     93 HA          -5.2650     1.9460   -13.9550 ho         1 GYT       0.517500
     94 H3          -3.6880     3.4110   -12.0820 h1         1 GYT       0.089200
     95 HB          -2.4990     1.4370   -13.7010 ho         1 GYT       0.466500
     96 HC          -1.4170     3.7710   -10.8710 hn         1 GYT       0.325000
     97 HAZ1         1.8750     3.1980   -11.0130 hc         1 GYT       0.063867
     98 HAZ2         1.2950     3.8130   -12.5490 hc         1 GYT       0.063867
     99 HAZ3         0.6460     4.4700   -11.0420 hc         1 GYT       0.063867
@<TRIPOS>BOND
     1     1     2 1   
     2     1    50 1   
     3     1    51 1   
     4     1    52 1   
     5     2     3 2   
     6     2     4 1   
     7     4     5 1   
     8     4    53 1   
     9     5     6 1   
    10     5    14 1   
    11     5    54 1   
    12     6     7 1   
    13     6     8 1   
    14     6    55 1   
    15     7    57 1   
    16     8     9 1   
    17     8    10 1   
    18     8    58 1   
    19     9    59 1   
    20    10    11 1   
    21    10    13 1   
    22    10    60 1   
    23    11    12 1   
    24    11    61 1   
    25    11    62 1   
    26    12    63 1   
    27    13    14 1   
    28    14    15 1   
    29    14    56 1   
    30    15    16 1   
    31    16    17 2   
    32    16    18 1   
    33    18    19 1   
    34    18    64 1   
    35    19    20 1   
    36    19    65 1   
    37    19    66 1   
    38    20    21 1   
    39    20    67 1   
    40    20    68 1   
    41    21    22 1   
    42    21    69 1   
    43    21    70 1   
    44    22    23 1   
    45    23    24 1   
    46    23    71 1   
    47    23    72 1   
    48    24    25 1   
    49    24    73 1   
    50    24    74 1   
    51    25    26 1   
    52    26    27 1   
    53    26    75 1   
    54    26    76 1   
    55    27    28 1   
    56    27    77 1   
    57    27    78 1   
    58    28    29 1   
    59    29    30 1   
    60    29    79 1   
    61    29    80 1   
    62    30    31 1   
    63    30    81 1   
    64    30    82 1   
    65    31    32 1   
    66    31    83 1   
    67    31    84 1   
    68    32    33 1   
    69    32    85 1   
    70    33    34 2   
    71    33    35 1   
    72    35    36 1   
    73    36    37 1   
    74    36    45 1   
    75    36    86 1   
    76    37    38 1   
    77    38    39 1   
    78    38    41 1   
    79    38    88 1   
    80    39    40 1   
    81    39    89 1   
    82    39    90 1   
    83    40    92 1   
    84    41    42 1   
    85    41    43 1   
    86    41    91 1   
    87    42    93 1   
    88    43    44 1   
    89    43    45 1   
    90    43    94 1   
    91    44    95 1   
    92    45    46 1   
    93    45    87 1   
    94    46    47 1   
    95    46    96 1   
    96    47    48 1   
    97    47    49 2   
    98    48    97 1   
    99    48    98 1   
   100    48    99 1   
@<TRIPOS>SUBSTRUCTURE
     1 GYT         1 TEMP              0 ****  ****    0 ROOT
