@<TRIPOS>MOLECULE
GYU
   43    43     1     0     0
SMALL
bcc


@<TRIPOS>ATOM
      1 C1           1.5230     1.9940     3.4190 c          1 GYU       0.761100
      2 O1A          2.5700     2.0280     4.0270 o          1 GYU      -0.573000
      3 O1B          1.3750     1.3950     2.2130 os         1 GYU      -0.488900
      4 C12          0.2400     3.2940     5.0420 c3         1 GYU       0.119000
      5 C13          0.6510     4.7540     4.8950 c3         1 GYU      -0.105400
      6 C14         -0.1850     5.5170     3.8780 c3         1 GYU      -0.090100
      7 C5           2.2530     0.5010     0.2080 c6         1 GYU       0.051700
      8 N5           2.1720     1.7990    -0.4040 ns         1 GYU      -0.563900
      9 C10          2.8020     2.1180    -1.5540 c          1 GYU       0.677100
     10 O10          3.5650     1.3560    -2.1310 o          1 GYU      -0.610100
     11 C11          2.5080     3.4980    -2.0820 c3         1 GYU      -0.178100
     12 C6           1.0410    -0.3760    -0.1150 c6         1 GYU       0.087100
     13 O6           0.8720    -0.5550    -1.5000 oh         1 GYU      -0.589800
     14 C7           1.1710    -1.7120     0.6160 c6         1 GYU       0.094100
     15 O7           0.0210    -2.5030     0.4560 oh         1 GYU      -0.587800
     16 C15          2.4510     0.6210     1.7180 c6         1 GYU       0.358900
     17 O8           2.4920    -0.6240     2.3220 os         1 GYU      -0.414600
     18 NAC          0.3620     2.5220     3.8220 ns         1 GYU      -0.564900
     19 C8           1.3660    -1.4690     2.1100 c6         1 GYU       0.104100
     20 C9           1.6470    -2.7470     2.8820 c3         1 GYU       0.150400
     21 O9           1.7720    -2.5230     4.2650 oh         1 GYU      -0.590800
     22 HAC         -0.4380     2.4530     3.2150 hn         1 GYU       0.326500
     23 H15          3.4040     1.1060     1.9370 h2         1 GYU       0.114700
     24 H121         0.8270     2.8160     5.8270 h1         1 GYU       0.057700
     25 H122        -0.8050     3.2330     5.3500 h1         1 GYU       0.057700
     26 H131         0.5570     5.2230     5.8770 hc         1 GYU       0.055200
     27 H132         1.7100     4.8080     4.6290 hc         1 GYU       0.055200
     28 H141        -1.2470     5.4780     4.1290 hc         1 GYU       0.032033
     29 H142         0.1060     6.5670     3.8410 hc         1 GYU       0.032033
     30 H143        -0.0660     5.1120     2.8720 hc         1 GYU       0.032033
     31 H5           3.1510     0.0100    -0.1760 h1         1 GYU       0.098700
     32 HA           1.4970     2.4490    -0.0350 hn         1 GYU       0.323500
     33 H6           0.1260     0.1180     0.2290 h1         1 GYU       0.094700
     34 H111         3.4440     4.0280    -2.2540 hc         1 GYU       0.063367
     35 H112         2.0030     3.4130    -3.0450 hc         1 GYU       0.063367
     36 H113         1.8850     4.0970    -1.4200 hc         1 GYU       0.063367
     37 HB           1.6960    -0.8850    -1.8770 ho         1 GYU       0.415000
     38 H7           2.0650    -2.2300     0.2280 h1         1 GYU       0.041700
     39 HC          -0.1530    -2.5880    -0.4870 ho         1 GYU       0.422000
     40 H8           0.4580    -1.0020     2.5150 h1         1 GYU       0.073700
     41 H9C1         2.5400    -3.2320     2.4640 h1         1 GYU       0.056700
     42 H9C2         0.8110    -3.4320     2.7450 h1         1 GYU       0.056700
     43 H9           2.5250    -1.9410     4.4080 ho         1 GYU       0.416000
@<TRIPOS>BOND
     1     1     2 2   
     2     1     3 1   
     3     1    18 1   
     4     3    16 1   
     5     4     5 1   
     6     4    18 1   
     7     4    24 1   
     8     4    25 1   
     9     5     6 1   
    10     5    26 1   
    11     5    27 1   
    12     6    28 1   
    13     6    29 1   
    14     6    30 1   
    15     7     8 1   
    16     7    12 1   
    17     7    16 1   
    18     7    31 1   
    19     8     9 1   
    20     8    32 1   
    21     9    10 2   
    22     9    11 1   
    23    11    34 1   
    24    11    35 1   
    25    11    36 1   
    26    12    13 1   
    27    12    14 1   
    28    12    33 1   
    29    13    37 1   
    30    14    15 1   
    31    14    19 1   
    32    14    38 1   
    33    15    39 1   
    34    16    17 1   
    35    16    23 1   
    36    17    19 1   
    37    18    22 1   
    38    19    20 1   
    39    19    40 1   
    40    20    21 1   
    41    20    41 1   
    42    20    42 1   
    43    21    43 1   
@<TRIPOS>SUBSTRUCTURE
     1 GYU         1 TEMP              0 ****  ****    0 ROOT
