@<TRIPOS>MOLECULE
GYU
   43    43     1     0     0
SMALL
No Charge or Current Charge


@<TRIPOS>ATOM
      1 C1           1.4120     1.9170     3.4990 c          1 GYU       0.645100
      2 O1A          2.3680     1.8710     4.2550 o          1 GYU      -0.524000
      3 O1B          1.3600     1.3950     2.2490 os         1 GYU      -0.512100
      4 C12         -0.0810     3.2760     4.9850 c3         1 GYU       0.119000
      5 C13          0.6200     4.6510     5.0530 c3         1 GYU      -0.105400
      6 C14          0.2340     5.6090     3.9060 c3         1 GYU      -0.090100
      7 C5           2.3690     0.4610     0.1970 c6         1 GYU       0.051700
      8 N5           2.2260     1.7750    -0.4840 ns         1 GYU      -0.496900
      9 C10          2.4600     2.0260    -1.8130 c          1 GYU       0.610100
     10 O10          2.7610     1.1330    -2.5890 o          1 GYU      -0.610100
     11 C11          2.2920     3.4750    -2.2420 c3         1 GYU      -0.178100
     12 C6           1.1740    -0.4870    -0.1350 c6         1 GYU       0.110300
     13 O6           1.1180    -0.7830    -1.5450 oh         1 GYU      -0.652000
     14 C7           1.2860    -1.8170     0.6620 c6         1 GYU       0.117300
     15 O7           0.1550    -2.6520     0.3680 oh         1 GYU      -0.710000
     16 C15          2.4780     0.6490     1.7470 c6         1 GYU       0.405300
     17 O8           2.5350    -0.6310     2.4180 os         1 GYU      -0.461000
     18 NAC          0.2270     2.5400     3.7580 ns         1 GYU      -0.497900
     19 C8           1.3990    -1.5020     2.1790 c6         1 GYU       0.127300
     20 C9           1.6110    -2.7760     3.0490 c3         1 GYU       0.173600
     21 O9           2.0580    -2.4270     4.3700 oh         1 GYU      -0.713000
     22 HAC         -0.4630     2.4980     3.0200 hn         1 GYU       0.326500
     23 H15          3.4060     1.2060     1.9550 h2         1 GYU       0.114700
     24 H121         0.2240     2.6680     5.8480 h1         1 GYU       0.057700
     25 H122        -1.1690     3.4180     5.0440 h1         1 GYU       0.057700
     26 H131         0.3670     5.1240     6.0100 hc         1 GYU       0.055200
     27 H132         1.7070     4.5070     5.0530 hc         1 GYU       0.055200
     28 H141        -0.8500     5.7760     3.8880 hc         1 GYU       0.032033
     29 H142         0.7280     6.5790     4.0380 hc         1 GYU       0.032033
     30 H143         0.5390     5.2020     2.9350 hc         1 GYU       0.032033
     31 H5           3.3040    -0.0080    -0.1440 h1         1 GYU       0.098700
     32 HA           1.9400     2.5710     0.0770 hn         1 GYU       0.323500
     33 H6           0.2480     0.0220     0.1780 h1         1 GYU       0.094700
     34 H111         2.9430     4.1070    -1.6270 hc         1 GYU       0.063367
     35 H112         2.4770     3.6220    -3.3120 hc         1 GYU       0.063367
     36 H113         1.2920     3.8190    -1.9530 hc         1 GYU       0.063367
     37 HB           1.7120    -0.1230    -1.9920 ho         1 GYU       0.454000
     38 H7           2.2100    -2.3280     0.3510 h1         1 GYU       0.041700
     39 HC          -0.0030    -2.5220    -0.6000 ho         1 GYU       0.521000
     40 H8           0.4810    -1.0020     2.5230 h1         1 GYU       0.073700
     41 H9C1         2.3590    -3.4110     2.5530 h1         1 GYU       0.056700
     42 H9C2         0.6710    -3.3420     3.0890 h1         1 GYU       0.056700
     43 H9           2.5810    -1.5990     4.2350 ho         1 GYU       0.515000
@<TRIPOS>BOND
     1     1     2 2   
     2     1     3 1   
     3     1    18 1   
     4     3    16 1   
     5     4     5 1   
     6     4    18 1   
     7     4    24 1   
     8     4    25 1   
     9     5     6 1   
    10     5    26 1   
    11     5    27 1   
    12     6    28 1   
    13     6    29 1   
    14     6    30 1   
    15     7     8 1   
    16     7    12 1   
    17     7    16 1   
    18     7    31 1   
    19     8     9 1   
    20     8    32 1   
    21     9    10 2   
    22     9    11 1   
    23    11    34 1   
    24    11    35 1   
    25    11    36 1   
    26    12    13 1   
    27    12    14 1   
    28    12    33 1   
    29    13    37 1   
    30    14    15 1   
    31    14    19 1   
    32    14    38 1   
    33    15    39 1   
    34    16    17 1   
    35    16    23 1   
    36    17    19 1   
    37    18    22 1   
    38    19    20 1   
    39    19    40 1   
    40    20    21 1   
    41    20    41 1   
    42    20    42 1   
    43    21    43 1   
@<TRIPOS>SUBSTRUCTURE
     1 GYU         1 TEMP              0 ****  ****    0 ROOT
