@<TRIPOS>MOLECULE
GYV
   34    34     1     0     0
SMALL
No Charge or Current Charge


@<TRIPOS>ATOM
      1 ND3          0.3300     3.2900     1.6310 nt         1 GYV      -0.603000
      2 C1           0.2670     2.7050     0.4300 c          1 GYV       0.651100
      3 O1A          0.4240     3.2970    -0.6220 o          1 GYV      -0.520000
      4 O1B         -0.0710     1.4030     0.5750 os         1 GYV      -0.508100
      5 C15         -0.1690     0.5640    -0.5900 c6         1 GYV       0.387300
      6 O8           1.1610     0.2240    -1.0460 os         1 GYV      -0.428000
      7 C8           1.9580    -0.5550    -0.1140 c6         1 GYV       0.141300
      8 C9           3.3820    -0.7460    -0.7350 c3         1 GYV       0.170600
      9 O9           4.0260     0.4970    -1.0750 oh         1 GYV      -0.698000
     10 C7           1.2420    -1.9090     0.1890 c6         1 GYV       0.101300
     11 O7           1.9620    -2.7080     1.1560 oh         1 GYV      -0.723000
     12 C6          -0.1900    -1.6110     0.7220 c6         1 GYV       0.161300
     13 O6          -0.8700    -2.8480     0.9910 oh         1 GYV      -0.650000
     14 C5          -0.9860    -0.7330    -0.2890 c6         1 GYV       0.091700
     15 N5          -2.3500    -0.4390     0.2130 ns         1 GYV      -0.494900
     16 C10         -3.3760     0.0760    -0.5380 c          1 GYV       0.606100
     17 O10         -3.2340     0.3740    -1.7150 o          1 GYV      -0.599100
     18 C11         -4.6940     0.2500     0.2030 c3         1 GYV      -0.179100
     19 HD31         0.5470     4.2730     1.6970 hn         1 GYV       0.328000
     20 HD32         0.1620     2.7370     2.4570 hn         1 GYV       0.328000
     21 H15         -0.6940     1.1130    -1.3890 h2         1 GYV       0.121700
     22 H5          -1.0830    -1.2920    -1.2310 h1         1 GYV       0.107700
     23 H8           2.0730     0.0130     0.8210 h1         1 GYV       0.074700
     24 H91C         4.0030    -1.2970    -0.0160 h1         1 GYV       0.023700
     25 H92C         3.2840    -1.3730    -1.6310 h1         1 GYV       0.023700
     26 H7           1.1460    -2.4630    -0.7580 h1         1 GYV       0.056700
     27 H9           4.8740     0.2680    -1.5220 ho         1 GYV       0.504000
     28 HA           2.6720    -3.1980     0.6750 ho         1 GYV       0.512000
     29 H6          -0.0890    -1.0420     1.6590 h1         1 GYV       0.053700
     30 HB          -0.1820    -3.4210     1.4010 ho         1 GYV       0.457000
     31 HC          -2.5650    -0.6760     1.1740 hn         1 GYV       0.318500
     32 H111        -4.5230     0.8670     1.0930 hc         1 GYV       0.061700
     33 H112        -5.4840     0.6660    -0.4320 hc         1 GYV       0.061700
     34 H113        -4.9880    -0.7110     0.6390 hc         1 GYV       0.061700
@<TRIPOS>BOND
     1     1     2 1   
     2     1    19 1   
     3     1    20 1   
     4     2     3 2   
     5     2     4 1   
     6     4     5 1   
     7     5     6 1   
     8     5    14 1   
     9     5    21 1   
    10     6     7 1   
    11     7     8 1   
    12     7    10 1   
    13     7    23 1   
    14     8     9 1   
    15     8    24 1   
    16     8    25 1   
    17     9    27 1   
    18    10    11 1   
    19    10    12 1   
    20    10    26 1   
    21    11    28 1   
    22    12    13 1   
    23    12    14 1   
    24    12    29 1   
    25    13    30 1   
    26    14    15 1   
    27    14    22 1   
    28    15    16 1   
    29    15    31 1   
    30    16    17 2   
    31    16    18 1   
    32    18    32 1   
    33    18    33 1   
    34    18    34 1   
@<TRIPOS>SUBSTRUCTURE
     1 GYV         1 TEMP              0 ****  ****    0 ROOT
