@<TRIPOS>MOLECULE
GYV
   34    34     1     0     0
SMALL
abcg2


@<TRIPOS>ATOM
      1 ND3          0.2210     3.2360     1.7500 nt         1 GYV      -0.603000
      2 C1           0.1630     2.6830     0.5330 c          1 GYV       0.651100
      3 O1A          0.2730     3.2750    -0.5180 o          1 GYV      -0.520000
      4 O1B         -0.0380     1.3530     0.6300 os         1 GYV      -0.508100
      5 C15         -0.0730     0.5910    -0.5640 c6         1 GYV       0.387300
      6 O8           1.2000     0.2810    -1.0040 os         1 GYV      -0.428000
      7 C8           1.9760    -0.5450    -0.1450 c6         1 GYV       0.141300
      8 C9           3.2990    -0.7890    -0.8400 c3         1 GYV       0.170600
      9 O9           3.9770     0.4350    -0.9820 oh         1 GYV      -0.698000
     10 C7           1.2380    -1.8580     0.1390 c6         1 GYV       0.101300
     11 O7           1.9230    -2.6270     1.1030 oh         1 GYV      -0.723000
     12 C6          -0.1560    -1.5820     0.6910 c6         1 GYV       0.161300
     13 O6          -0.9030    -2.7620     0.8270 oh         1 GYV      -0.650000
     14 C5          -0.9020    -0.6610    -0.2640 c6         1 GYV       0.091700
     15 N5          -2.2050    -0.3220     0.2410 ns         1 GYV      -0.494900
     16 C10         -3.2900    -0.1580    -0.5440 c          1 GYV       0.606100
     17 O10         -3.2540    -0.2970    -1.7580 o          1 GYV      -0.599100
     18 C11         -4.5440     0.2280     0.1990 c3         1 GYV      -0.179100
     19 HD31         0.3140     4.2330     1.8370 hn         1 GYV       0.328000
     20 HD32         0.0730     2.7010     2.5880 hn         1 GYV       0.328000
     21 H15         -0.5460     1.1640    -1.3640 h2         1 GYV       0.121700
     22 H5          -1.0330    -1.1830    -1.2160 h1         1 GYV       0.107700
     23 H8           2.1680    -0.0350     0.8100 h1         1 GYV       0.074700
     24 H91C         3.8760    -1.4990    -0.2360 h1         1 GYV       0.023700
     25 H92C         3.1100    -1.2680    -1.8110 h1         1 GYV       0.023700
     26 H7           1.1290    -2.4140    -0.8030 h1         1 GYV       0.056700
     27 H9           4.8210     0.2570    -1.4060 ho         1 GYV       0.504000
     28 HA           2.4920    -3.2600     0.6570 ho         1 GYV       0.512000
     29 H6          -0.0420    -1.0810     1.6660 h1         1 GYV       0.053700
     30 HB          -0.4180    -3.3530     1.4130 ho         1 GYV       0.457000
     31 HC          -2.3030    -0.1570     1.2300 hn         1 GYV       0.318500
     32 H111        -4.4690     1.2610     0.5440 hc         1 GYV       0.061700
     33 H112        -5.4100     0.1470    -0.4540 hc         1 GYV       0.061700
     34 H113        -4.7020    -0.3990     1.0760 hc         1 GYV       0.061700
@<TRIPOS>BOND
     1     1     2 1   
     2     1    19 1   
     3     1    20 1   
     4     2     3 2   
     5     2     4 1   
     6     4     5 1   
     7     5     6 1   
     8     5    14 1   
     9     5    21 1   
    10     6     7 1   
    11     7     8 1   
    12     7    10 1   
    13     7    23 1   
    14     8     9 1   
    15     8    24 1   
    16     8    25 1   
    17     9    27 1   
    18    10    11 1   
    19    10    12 1   
    20    10    26 1   
    21    11    28 1   
    22    12    13 1   
    23    12    14 1   
    24    12    29 1   
    25    13    30 1   
    26    14    15 1   
    27    14    22 1   
    28    15    16 1   
    29    15    31 1   
    30    16    17 2   
    31    16    18 1   
    32    18    32 1   
    33    18    33 1   
    34    18    34 1   
@<TRIPOS>SUBSTRUCTURE
     1 GYV         1 TEMP              0 ****  ****    0 ROOT
