@<TRIPOS>MOLECULE
GYW
   49    53     1     0     0
SMALL
No Charge or Current Charge


@<TRIPOS>ATOM
      1 C2          10.2070    26.0860    -0.0700 cc         1 GYW      -0.051000
      2 C3           8.7030    26.7620     1.7270 cc         1 GYW      -0.036000
      3 C4           9.7450    27.1230    -0.9170 cc         1 GYW      -0.090000
      4 C5           8.2490    27.7930     0.8960 cd         1 GYW      -0.066000
      5 C6           8.7880    27.9820    -0.4370 cd         1 GYW      -0.064000
      6 C7          10.3060    24.8820     1.8260 cc         1 GYW      -0.255900
      7 C8          11.1530    24.3680     0.8580 cd         1 GYW       0.039600
      8 C12         10.1980    24.3130     3.1800 ca         1 GYW       0.234800
      9 C15         10.1410    23.2790     5.6590 ca         1 GYW      -0.106400
     10 C16          9.5810    24.5050     5.3670 ca         1 GYW       0.205900
     11 C19          8.9570    23.9690     7.5230 c          1 GYW       0.606000
     12 C23         11.7840    21.9430     8.0760 c3         1 GYW       0.137600
     13 C27          6.0980    27.5690     5.8920 c6         1 GYW       0.153100
     14 O28          6.9970    28.6510     5.5670 os         1 GYW      -0.449000
     15 C30          8.9910    27.4680     6.3400 c6         1 GYW      -0.126400
     16 O21          8.4700    24.0190     8.6430 o          1 GYW      -0.529000
     17 N18          9.7220    22.9260     6.9720 n          1 GYW      -0.280000
     18 C22         10.2750    21.8060     7.7590 c3         1 GYW       0.121000
     19 O24         12.0370    23.0940     8.9000 oh         1 GYW      -0.654000
     20 C13         10.6510    22.5180     4.6020 ca         1 GYW       0.117900
     21 N14         10.7150    23.0620     3.3630 nb         1 GYW      -0.178000
     22 N20          8.8730    24.9500     6.5210 n          1 GYW      -0.380300
     23 C25          8.1190    26.2200     6.6410 c6         1 GYW       0.134700
     24 C29          8.1390    28.7530     6.4440 c6         1 GYW       0.153100
     25 C26          6.8380    26.2170     5.7690 c6         1 GYW      -0.126400
     26 N17          9.5970    25.0550     4.1440 nb         1 GYW      -0.210000
     27 N1           9.7450    25.9760     1.2080 na         1 GYW       0.135100
     28 N9          11.0850    25.1270    -0.3090 nd         1 GYW      -0.294600
     29 C10          7.2260    28.6520     1.3800 ch         1 GYW       0.321000
     30 N11          6.3730    29.3590     1.7500 n1         1 GYW      -0.429000
     31 H1           8.3210    26.5560     2.7130 h4         1 GYW       0.186000
     32 H2          10.1420    27.2170    -1.9240 ha         1 GYW       0.151000
     33 H3           8.4190    28.7850    -1.0700 ha         1 GYW       0.137000
     34 H4          11.8130    23.5060     0.9310 h4         1 GYW       0.244000
     35 H5          12.3420    22.0180     7.1330 h1         1 GYW       0.031700
     36 H6          12.1190    21.0310     8.5880 h1         1 GYW       0.031700
     37 H7           5.7170    27.7070     6.9140 h1         1 GYW       0.052200
     38 H8           5.2430    27.5940     5.2020 h1         1 GYW       0.052200
     39 H9           9.4250    27.4150     5.3350 hc         1 GYW       0.063950
     40 H10          9.8320    27.5190     7.0450 hc         1 GYW       0.063950
     41 H11          9.7180    21.7090     8.7000 h1         1 GYW       0.077200
     42 H12         10.1190    20.8790     7.1930 h1         1 GYW       0.077200
     43 H13         13.0080    23.1330     9.0520 ho         1 GYW       0.447000
     44 H14         11.0000    21.4940     4.7290 h4         1 GYW       0.033100
     45 H15          7.7910    26.3110     7.6880 h1         1 GYW       0.085700
     46 H16          8.7390    29.6270     6.1530 h1         1 GYW       0.052200
     47 H17          7.7940    28.9040     7.4780 h1         1 GYW       0.052200
     48 H18          6.1730    25.4000     6.0810 hc         1 GYW       0.063950
     49 H19          7.0850    26.0350     4.7160 hc         1 GYW       0.063950
@<TRIPOS>BOND
     1     1     3 1   
     2     1    27 1   
     3     1    28 2   
     4     2     4 2   
     5     2    27 1   
     6     2    31 1   
     7     3     5 2   
     8     3    32 1   
     9     4     5 1   
    10     4    29 1   
    11     5    33 1   
    12     6     7 2   
    13     6     8 1   
    14     6    27 1   
    15     7    28 1   
    16     7    34 1   
    17     8    21 ar  
    18     8    26 ar  
    19     9    10 ar  
    20     9    17 1   
    21     9    20 ar  
    22    10    22 1   
    23    10    26 ar  
    24    11    16 2   
    25    11    17 1   
    26    11    22 1   
    27    12    18 1   
    28    12    19 1   
    29    12    35 1   
    30    12    36 1   
    31    13    14 1   
    32    13    25 1   
    33    13    37 1   
    34    13    38 1   
    35    14    24 1   
    36    15    23 1   
    37    15    24 1   
    38    15    39 1   
    39    15    40 1   
    40    17    18 1   
    41    18    41 1   
    42    18    42 1   
    43    19    43 1   
    44    20    21 ar  
    45    20    44 1   
    46    22    23 1   
    47    23    25 1   
    48    23    45 1   
    49    24    46 1   
    50    24    47 1   
    51    25    48 1   
    52    25    49 1   
    53    29    30 3   
@<TRIPOS>SUBSTRUCTURE
     1 GYW         1 TEMP              0 ****  ****    0 ROOT
