@<TRIPOS>MOLECULE
GYW
   49    53     1     0     0
SMALL
abcg2


@<TRIPOS>ATOM
      1 C2           9.9700    25.9100    -0.0990 cc         1 GYW      -0.051000
      2 C3           9.0280    26.9090     1.8920 cc         1 GYW      -0.036000
      3 C4           9.5490    27.0090    -0.8660 cc         1 GYW      -0.090000
      4 C5           8.6270    27.9820     1.1360 cd         1 GYW      -0.066000
      5 C6           8.8850    28.0380    -0.2640 cd         1 GYW      -0.064000
      6 C7          10.2190    24.6990     1.7760 cc         1 GYW      -0.255900
      7 C8          10.7850    24.0850     0.6720 cd         1 GYW       0.039600
      8 C12         10.1610    24.2240     3.1490 ca         1 GYW       0.234800
      9 C15         10.0950    23.2410     5.6260 ca         1 GYW      -0.106400
     10 C16          9.4420    24.4350     5.2670 ca         1 GYW       0.205900
     11 C19          9.0580    24.0450     7.4610 c          1 GYW       0.606000
     12 C23         11.8460    22.1070     8.1010 c3         1 GYW       0.137600
     13 C27          6.0160    27.4220     5.7840 c6         1 GYW       0.153100
     14 O28          6.8380    28.5630     5.5470 os         1 GYW      -0.449000
     15 C30          8.8410    27.3930     6.3110 c6         1 GYW      -0.126400
     16 O21          8.6430    24.1720     8.6000 o          1 GYW      -0.529000
     17 N18          9.8470    23.0200     6.9660 n          1 GYW      -0.280000
     18 C22         10.3760    21.9320     7.7730 c3         1 GYW       0.121000
     19 O24         11.9930    23.2700     8.9130 oh         1 GYW      -0.654000
     20 C13         10.7860    22.5780     4.6380 ca         1 GYW       0.117900
     21 N14         10.8120    23.0820     3.3950 nb         1 GYW      -0.178000
     22 N20          8.8130    24.9150     6.3870 n          1 GYW      -0.380300
     23 C25          8.0090    26.1290     6.5240 c6         1 GYW       0.134700
     24 C29          7.9430    28.6180     6.4470 c6         1 GYW       0.153100
     25 C26          6.7900    26.1220     5.6020 c6         1 GYW      -0.126400
     26 N17          9.4600    24.9440     4.0520 nb         1 GYW      -0.210000
     27 N1           9.6870    25.8870     1.2820 na         1 GYW       0.135100
     28 N9          10.6330    24.8160    -0.4600 nd         1 GYW      -0.294600
     29 C10          7.9450    29.0590     1.7720 ch         1 GYW       0.321000
     30 N11          7.3940    29.9500     2.2540 n1         1 GYW      -0.429000
     31 H1           8.8560    26.8130     2.9500 h4         1 GYW       0.186000
     32 H2           9.7680    27.0130    -1.9250 ha         1 GYW       0.151000
     33 H3           8.5530    28.8950    -0.8320 ha         1 GYW       0.137000
     34 H4          11.2930    23.1350     0.6710 h4         1 GYW       0.244000
     35 H5          12.4310    22.2030     7.1810 h1         1 GYW       0.031700
     36 H6          12.1860    21.2100     8.6300 h1         1 GYW       0.031700
     37 H7           5.6050    27.4770     6.8020 h1         1 GYW       0.052200
     38 H8           5.1900    27.4850     5.0760 h1         1 GYW       0.052200
     39 H9           9.2920    27.3800     5.3160 hc         1 GYW       0.063950
     40 H10          9.6470    27.4440     7.0470 hc         1 GYW       0.063950
     41 H11          9.7870    21.8980     8.6880 h1         1 GYW       0.077200
     42 H12         10.2310    20.9940     7.2340 h1         1 GYW       0.077200
     43 H13         12.9340    23.4680     8.9940 ho         1 GYW       0.447000
     44 H14         11.3210    21.6530     4.8160 h4         1 GYW       0.033100
     45 H15          7.6640    26.1100     7.5590 h1         1 GYW       0.085700
     46 H16          8.4910    29.5290     6.2080 h1         1 GYW       0.052200
     47 H17          7.5700    28.6960     7.4770 h1         1 GYW       0.052200
     48 H18          6.1450    25.2730     5.8370 hc         1 GYW       0.063950
     49 H19          7.1080    26.0310     4.5630 hc         1 GYW       0.063950
@<TRIPOS>BOND
     1     1     3 1   
     2     1    27 1   
     3     1    28 2   
     4     2     4 2   
     5     2    27 1   
     6     2    31 1   
     7     3     5 2   
     8     3    32 1   
     9     4     5 1   
    10     4    29 1   
    11     5    33 1   
    12     6     7 2   
    13     6     8 1   
    14     6    27 1   
    15     7    28 1   
    16     7    34 1   
    17     8    21 ar  
    18     8    26 ar  
    19     9    10 ar  
    20     9    17 1   
    21     9    20 ar  
    22    10    22 1   
    23    10    26 ar  
    24    11    16 2   
    25    11    17 1   
    26    11    22 1   
    27    12    18 1   
    28    12    19 1   
    29    12    35 1   
    30    12    36 1   
    31    13    14 1   
    32    13    25 1   
    33    13    37 1   
    34    13    38 1   
    35    14    24 1   
    36    15    23 1   
    37    15    24 1   
    38    15    39 1   
    39    15    40 1   
    40    17    18 1   
    41    18    41 1   
    42    18    42 1   
    43    19    43 1   
    44    20    21 ar  
    45    20    44 1   
    46    22    23 1   
    47    23    25 1   
    48    23    45 1   
    49    24    46 1   
    50    24    47 1   
    51    25    48 1   
    52    25    49 1   
    53    29    30 3   
@<TRIPOS>SUBSTRUCTURE
     1 GYW         1 TEMP              0 ****  ****    0 ROOT
