@<TRIPOS>MOLECULE
GYX
   63    66     1     0     0
SMALL
No Charge or Current Charge


@<TRIPOS>ATOM
      1 C19        -10.3090   -31.6990     1.3200 ca         1 GYX      -0.123000
      2 C21        -10.2190   -26.7280    -1.8860 c6         1 GYX      -0.071400
      3 C22        -10.8750   -26.1740    -3.1740 c6         1 GYX       0.182300
      4 C23        -13.7320   -27.6550    -5.2860 ca         1 GYX      -0.056300
      5 C24        -15.1150   -27.3440    -5.2730 ca         1 GYX      -0.110000
      6 C25        -16.0740   -28.2820    -5.6810 ca         1 GYX      -0.109000
      7 C26        -15.6760   -29.5540    -6.1070 ca         1 GYX      -0.099000
      8 C27        -14.3140   -29.8980    -6.1160 ca         1 GYX      -0.039000
      9 C10         -9.2770   -30.7420     1.2420 ca         1 GYX      -0.080300
     10 C11         -8.0050   -31.1290     0.7820 ca         1 GYX      -0.135000
     11 C12         -7.7650   -32.4600     0.4090 ca         1 GYX      -0.080000
     12 C13         -8.7960   -33.4090     0.4920 ca         1 GYX      -0.170000
     13 C14        -10.0760   -33.0420     0.9470 ca         1 GYX      -0.015000
     14 C16        -12.3940   -34.0550     1.4170 c          1 GYX       0.610100
     15 C17        -13.0910   -35.4060     1.2790 c3         1 GYX      -0.184100
     16 C01        -13.1670   -25.1290    -4.9800 c3         1 GYX      -0.123100
     17 C02        -12.6860   -26.6000    -4.8460 c3         1 GYX       0.243800
     18 C04        -13.0990   -26.8890    -2.3870 c6         1 GYX       0.182300
     19 C05        -12.4780   -27.4510    -1.0850 c6         1 GYX      -0.071400
     20 C06        -11.1970   -26.6650    -0.6740 c6         1 GYX      -0.150700
     21 C07        -10.5590   -27.2490     0.6010 c          1 GYX       0.610100
     22 C09         -9.5440   -29.2980     1.6360 c3         1 GYX       0.140300
     23 C28        -13.3330   -28.9600    -5.7010 ca         1 GYX      -0.014000
     24 C29        -11.9740   -29.3640    -5.7100 ca         1 GYX      -0.082000
     25 C30        -11.6080   -30.6550    -6.1300 ca         1 GYX      -0.119000
     26 C31        -12.5880   -31.5660    -6.5470 ca         1 GYX      -0.106000
     27 C32        -13.9390   -31.1890    -6.5370 ca         1 GYX      -0.105000
     28 N03        -12.1170   -26.9240    -3.5070 n3         1 GYX      -0.753600
     29 N08        -10.1610   -28.5640     0.5360 ns         1 GYX      -0.506900
     30 N15        -11.0690   -34.0590     0.9980 ns         1 GYX      -0.151000
     31 O18        -12.9820   -33.0780     1.8630 o          1 GYX      -0.578100
     32 O20        -10.4140   -26.5810     1.6150 o          1 GYX      -0.605100
     33 H1         -11.2840   -31.3750     1.6690 ha         1 GYX       0.152000
     34 H2          -9.8910   -27.7600    -2.0710 hc         1 GYX       0.055200
     35 H3          -9.3120   -26.1490    -1.6630 hc         1 GYX       0.055200
     36 H4         -10.1510   -26.2490    -3.9990 h1         1 GYX       0.033200
     37 H5         -11.0950   -25.1060    -3.0280 h1         1 GYX       0.033200
     38 H7         -17.1300   -28.0210    -5.6650 ha         1 GYX       0.112000
     39 H8         -16.4280   -30.2740    -6.4220 ha         1 GYX       0.111000
     40 H9          -7.2020   -30.3970     0.7120 ha         1 GYX       0.114000
     41 H10         -6.7800   -32.7550     0.0540 ha         1 GYX       0.113000
     42 H11         -8.5970   -34.4380     0.1980 ha         1 GYX       0.108000
     43 H12        -14.1330   -35.3800     1.6170 hc         1 GYX       0.064033
     44 H13        -13.0090   -35.7450     0.2400 hc         1 GYX       0.064033
     45 H14        -12.5100   -36.1640     1.8170 hc         1 GYX       0.064033
     46 H15        -12.3290   -24.4330    -4.8650 hc         1 GYX       0.040367
     47 H16        -13.5970   -24.9600    -5.9740 hc         1 GYX       0.040367
     48 H17        -13.9230   -24.8740    -4.2290 hc         1 GYX       0.040367
     49 H18        -11.8740   -26.6720    -5.5820 h1         1 GYX       0.057700
     50 H19        -13.4390   -25.8600    -2.2020 h1         1 GYX       0.033200
     51 H20        -13.9890   -27.4870    -2.6310 h1         1 GYX       0.033200
     52 H21        -13.2220   -27.4020    -0.2780 hc         1 GYX       0.055200
     53 H22        -12.2520   -28.5160    -1.2330 hc         1 GYX       0.055200
     54 H23        -11.4580   -25.6180    -0.4650 hc         1 GYX       0.076700
     55 H24         -8.6030   -28.8040     1.9130 h1         1 GYX       0.065200
     56 H25        -10.2110   -29.2680     2.5080 h1         1 GYX       0.065200
     57 H26        -11.1830   -28.6960    -5.3840 ha         1 GYX       0.123000
     58 H27        -10.5610   -30.9480    -6.1300 ha         1 GYX       0.109000
     59 H28        -12.3030   -32.5640    -6.8710 ha         1 GYX       0.110000
     60 H29        -14.6950   -31.9030    -6.8550 ha         1 GYX       0.109000
     61 H31        -10.3140   -29.0470    -0.3400 hn         1 GYX       0.316500
     62 H32        -10.7470   -34.9580     0.6640 hn         1 GYX       0.147000
     63 H6         -15.4670   -26.3720    -4.9420 ha         1 GYX       0.111000
@<TRIPOS>BOND
     1     1     9 ar  
     2     1    13 ar  
     3     1    33 1   
     4     2     3 1   
     5     2    20 1   
     6     2    34 1   
     7     2    35 1   
     8     3    28 1   
     9     3    36 1   
    10     3    37 1   
    11     4     5 ar  
    12     4    17 1   
    13     4    23 ar  
    14     5     6 ar  
    15     5    63 1   
    16     6     7 ar  
    17     6    38 1   
    18     7     8 ar  
    19     7    39 1   
    20     8    23 ar  
    21     8    27 ar  
    22     9    10 ar  
    23     9    22 1   
    24    10    11 ar  
    25    10    40 1   
    26    11    12 ar  
    27    11    41 1   
    28    12    13 ar  
    29    12    42 1   
    30    13    30 1   
    31    14    15 1   
    32    14    30 1   
    33    14    31 2   
    34    15    43 1   
    35    15    44 1   
    36    15    45 1   
    37    16    17 1   
    38    16    46 1   
    39    16    47 1   
    40    16    48 1   
    41    17    28 1   
    42    17    49 1   
    43    18    19 1   
    44    18    28 1   
    45    18    50 1   
    46    18    51 1   
    47    19    20 1   
    48    19    52 1   
    49    19    53 1   
    50    20    21 1   
    51    20    54 1   
    52    21    29 1   
    53    21    32 2   
    54    22    29 1   
    55    22    55 1   
    56    22    56 1   
    57    23    24 ar  
    58    24    25 ar  
    59    24    57 1   
    60    25    26 ar  
    61    25    58 1   
    62    26    27 ar  
    63    26    59 1   
    64    27    60 1   
    65    29    61 1   
    66    30    62 1   
@<TRIPOS>SUBSTRUCTURE
     1 GYX         1 TEMP              0 ****  ****    0 ROOT
