@<TRIPOS>MOLECULE
GYX
   63    66     1     0     0
SMALL
abcg2


@<TRIPOS>ATOM
      1 C19        -10.0770   -31.2460     0.6360 ca         1 GYX      -0.123000
      2 C21        -10.3300   -26.6610    -2.0170 c6         1 GYX      -0.071400
      3 C22        -11.3460   -26.0920    -2.9970 c6         1 GYX       0.182300
      4 C23        -13.9270   -28.0470    -4.8300 ca         1 GYX      -0.056300
      5 C24        -15.2920   -28.1780    -4.8080 ca         1 GYX      -0.110000
      6 C25        -15.9350   -29.3640    -5.2190 ca         1 GYX      -0.109000
      7 C26        -15.2010   -30.4240    -5.6620 ca         1 GYX      -0.099000
      8 C27        -13.7890   -30.3400    -5.7130 ca         1 GYX      -0.039000
      9 C10         -8.7590   -30.8250     0.7830 ca         1 GYX      -0.080300
     10 C11         -7.7410   -31.7580     0.9300 ca         1 GYX      -0.135000
     11 C12         -8.0470   -33.1120     0.9390 ca         1 GYX      -0.080000
     12 C13         -9.3540   -33.5380     0.7890 ca         1 GYX      -0.170000
     13 C14        -10.3840   -32.6070     0.6330 ca         1 GYX      -0.015000
     14 C16        -12.8480   -32.4760     0.2420 c          1 GYX       0.610100
     15 C17        -14.0160   -33.4090     0.0420 c3         1 GYX      -0.184100
     16 C01        -14.1820   -25.5750    -4.2200 c3         1 GYX      -0.123100
     17 C02        -13.2400   -26.7670    -4.3860 c3         1 GYX       0.243800
     18 C04        -13.1350   -27.3500    -2.0050 c6         1 GYX       0.182300
     19 C05        -12.2000   -27.9510    -0.9660 c6         1 GYX      -0.071400
     20 C06        -11.0180   -27.0120    -0.6980 c6         1 GYX      -0.150700
     21 C07        -10.1190   -27.6080     0.3700 c          1 GYX       0.610100
     22 C09         -8.4260   -29.3510     0.8140 c3         1 GYX       0.140300
     23 C28        -13.1390   -29.1480    -5.2910 ca         1 GYX      -0.014000
     24 C29        -11.7240   -29.1050    -5.3680 ca         1 GYX      -0.082000
     25 C30        -11.0060   -30.1720    -5.8370 ca         1 GYX      -0.119000
     26 C31        -11.6560   -31.3520    -6.2490 ca         1 GYX      -0.106000
     27 C32        -13.0200   -31.4290    -6.1860 ca         1 GYX      -0.105000
     28 N03        -12.4120   -27.0450    -3.2190 n3         1 GYX      -0.753600
     29 N08         -9.2650   -28.5610    -0.0510 ns         1 GYX      -0.506900
     30 N15        -11.6740   -33.1220     0.4790 ns         1 GYX      -0.151000
     31 O18        -12.9550   -31.2650     0.1700 o          1 GYX      -0.578100
     32 O20        -10.2100   -27.2710     1.5430 o          1 GYX      -0.605100
     33 H1         -10.8600   -30.5150     0.5240 ha         1 GYX       0.152000
     34 H2          -9.8820   -27.5460    -2.4790 hc         1 GYX       0.055200
     35 H3          -9.5300   -25.9360    -1.8540 hc         1 GYX       0.055200
     36 H4         -10.8520   -25.8890    -3.9510 h1         1 GYX       0.033200
     37 H5         -11.7090   -25.1200    -2.6180 h1         1 GYX       0.033200
     38 H7         -17.0150   -29.4220    -5.1810 ha         1 GYX       0.112000
     39 H8         -15.6860   -31.3370    -5.9880 ha         1 GYX       0.111000
     40 H9          -6.7130   -31.4320     1.0360 ha         1 GYX       0.114000
     41 H10         -7.2590   -33.8460     1.0530 ha         1 GYX       0.113000
     42 H11         -9.5770   -34.5990     0.7870 ha         1 GYX       0.108000
     43 H12        -14.9510   -32.8640     0.1420 hc         1 GYX       0.064033
     44 H13        -13.9760   -33.8370    -0.9620 hc         1 GYX       0.064033
     45 H14        -14.0090   -34.2370     0.7500 hc         1 GYX       0.064033
     46 H15        -13.6120   -24.6860    -3.9470 hc         1 GYX       0.040367
     47 H16        -14.7030   -25.3520    -5.1520 hc         1 GYX       0.040367
     48 H17        -14.9330   -25.7340    -3.4450 hc         1 GYX       0.040367
     49 H18        -12.5420   -26.4980    -5.1870 h1         1 GYX       0.057700
     50 H19        -13.6250   -26.4610    -1.5720 h1         1 GYX       0.033200
     51 H20        -13.9260   -28.0690    -2.2270 h1         1 GYX       0.033200
     52 H21        -12.7540   -28.1360    -0.0440 hc         1 GYX       0.055200
     53 H22        -11.8390   -28.9190    -1.3250 hc         1 GYX       0.055200
     54 H23        -11.4120   -26.0840    -0.2680 hc         1 GYX       0.076700
     55 H24         -7.3770   -29.2110     0.5400 h1         1 GYX       0.065200
     56 H25         -8.5370   -28.9670     1.8280 h1         1 GYX       0.065200
     57 H26        -11.1940   -28.2230    -5.0420 ha         1 GYX       0.123000
     58 H27         -9.9260   -30.1110    -5.8880 ha         1 GYX       0.109000
     59 H28        -11.0780   -32.1900    -6.6140 ha         1 GYX       0.110000
     60 H29        -13.5330   -32.3290    -6.5050 ha         1 GYX       0.109000
     61 H31         -9.2480   -28.7950    -1.0310 hn         1 GYX       0.316500
     62 H32        -11.7290   -34.1290     0.5100 hn         1 GYX       0.147000
     63 H6         -15.9090   -27.3570    -4.4680 ha         1 GYX       0.111000
@<TRIPOS>BOND
     1     1     9 ar  
     2     1    13 ar  
     3     1    33 1   
     4     2     3 1   
     5     2    20 1   
     6     2    34 1   
     7     2    35 1   
     8     3    28 1   
     9     3    36 1   
    10     3    37 1   
    11     4     5 ar  
    12     4    17 1   
    13     4    23 ar  
    14     5     6 ar  
    15     5    63 1   
    16     6     7 ar  
    17     6    38 1   
    18     7     8 ar  
    19     7    39 1   
    20     8    23 ar  
    21     8    27 ar  
    22     9    10 ar  
    23     9    22 1   
    24    10    11 ar  
    25    10    40 1   
    26    11    12 ar  
    27    11    41 1   
    28    12    13 ar  
    29    12    42 1   
    30    13    30 1   
    31    14    15 1   
    32    14    30 1   
    33    14    31 2   
    34    15    43 1   
    35    15    44 1   
    36    15    45 1   
    37    16    17 1   
    38    16    46 1   
    39    16    47 1   
    40    16    48 1   
    41    17    28 1   
    42    17    49 1   
    43    18    19 1   
    44    18    28 1   
    45    18    50 1   
    46    18    51 1   
    47    19    20 1   
    48    19    52 1   
    49    19    53 1   
    50    20    21 1   
    51    20    54 1   
    52    21    29 1   
    53    21    32 2   
    54    22    29 1   
    55    22    55 1   
    56    22    56 1   
    57    23    24 ar  
    58    24    25 ar  
    59    24    57 1   
    60    25    26 ar  
    61    25    58 1   
    62    26    27 ar  
    63    26    59 1   
    64    27    60 1   
    65    29    61 1   
    66    30    62 1   
@<TRIPOS>SUBSTRUCTURE
     1 GYX         1 TEMP              0 ****  ****    0 ROOT
