@<TRIPOS>MOLECULE
GYY
   61    62     1     0     0
SMALL
abcg2


@<TRIPOS>ATOM
      1 CAA          8.3660     1.8020     0.4030 ca         1 GYY      -0.106000
      2 CAB          7.0550     2.0970    -0.0230 ca         1 GYY      -0.091000
      3 CAD          8.7910     0.5060     0.4650 ca         1 GYY      -0.094000
      4 CAE          6.1760     1.1090    -0.3810 ca         1 GYY      -0.054300
      5 CAF          4.7900     1.4610    -0.8300 c3         1 GYY      -0.114100
      6 CAG          3.7270     1.1100     0.2000 c          1 GYY       0.596100
      7 CAI          1.3430     0.6480     0.5230 c3         1 GYY       0.106000
      8 CAJ          0.0940     0.5200    -0.3320 c3         1 GYY      -0.099400
      9 CAK         -1.1490     0.3290     0.5230 c3         1 GYY       0.163800
     10 CAM         -3.5520     0.0740     0.4830 c3         1 GYY       0.160800
     11 CAN         -4.7840     0.0030    -0.4060 c3         1 GYY      -0.078400
     12 CAO         -6.0720    -0.1280     0.3960 c3         1 GYY      -0.079400
     13 CAP         -7.3080    -0.1860    -0.4860 c3         1 GYY       0.161800
     14 CAR         -9.7230    -0.3280    -0.5030 c3         1 GYY       0.159800
     15 CAS        -10.9720    -0.3800     0.3640 c3         1 GYY      -0.082400
     16 CAT        -12.2490    -0.4300    -0.4600 c3         1 GYY       0.149800
     17 CAV          7.9210    -0.5490     0.1020 ca         1 GYY      -0.035000
     18 CAW          6.5990    -0.2510    -0.3250 ca         1 GYY      -0.017000
     19 CAX          8.3440    -1.8980     0.1580 ca         1 GYY      -0.096000
     20 CAY          5.7500    -1.3270    -0.6810 ca         1 GYY      -0.100000
     21 CAZ          7.4980    -2.9140    -0.1930 ca         1 GYY      -0.109000
     22 CBA          6.1870    -2.6230    -0.6180 ca         1 GYY      -0.106000
     23 NAH          2.5070     0.8810    -0.3070 ns         1 GYY      -0.515900
     24 NAL         -2.3400     0.2340    -0.2970 n7         1 GYY      -0.864400
     25 NAQ         -8.5190    -0.2920     0.3040 n7         1 GYY      -0.860400
     26 NAU        -13.4210    -0.4570     0.4040 n8         1 GYY      -0.992200
     27 OAC          3.9660     1.0720     1.3970 o          1 GYY      -0.586100
     28 HAA1         9.0320     2.6110     0.6770 ha         1 GYY       0.114000
     29 HAB1         6.7370     3.1320    -0.0680 ha         1 GYY       0.110000
     30 HAD1         9.7980     0.2690     0.7890 ha         1 GYY       0.113000
     31 HAF1         4.7280     2.5410    -0.9930 hc         1 GYY       0.062200
     32 HAF2         4.5550     1.0020    -1.7940 hc         1 GYY       0.062200
     33 HAI1         1.2220     1.4730     1.2310 h1         1 GYY       0.051700
     34 HAI2         1.4850    -0.2590     1.1170 h1         1 GYY       0.051700
     35 HAJ2        -0.0280     1.4160    -0.9470 hc         1 GYY       0.049700
     36 HAJ1         0.2030    -0.3270    -1.0170 hc         1 GYY       0.049700
     37 HAK1        -1.0130    -0.5470     1.1780 h1         1 GYY       0.033200
     38 HAK2        -1.2630     1.1900     1.1900 h1         1 GYY       0.033200
     39 HAM2        -3.6430     0.9370     1.1510 h1         1 GYY       0.030200
     40 HAM1        -3.5210    -0.8140     1.1360 h1         1 GYY       0.030200
     41 HAN2        -4.8240     0.9000    -1.0320 hc         1 GYY       0.045200
     42 HAN1        -4.6910    -0.8480    -1.0900 hc         1 GYY       0.045200
     43 HAO2        -6.0340    -1.0270     1.0200 hc         1 GYY       0.046200
     44 HAO1        -6.1580     0.7220     1.0830 hc         1 GYY       0.046200
     45 HAP1        -7.3190     0.6910    -1.1550 h1         1 GYY       0.028200
     46 HAP2        -7.2460    -1.0630    -1.1390 h1         1 GYY       0.028200
     47 HAR1        -9.6850    -1.2210    -1.1370 h1         1 GYY       0.026700
     48 HAR2        -9.7930     0.5310    -1.1920 h1         1 GYY       0.026700
     49 HAS2       -10.9260    -1.2510     1.0220 hc         1 GYY       0.053200
     50 HAS1       -10.9970     0.5050     1.0120 hc         1 GYY       0.053200
     51 HAT2       -12.2500     0.4080    -1.1710 h1         1 GYY       0.025700
     52 HAT1       -12.2480    -1.3420    -1.0640 h1         1 GYY       0.025700
     53 HAX1         9.3530    -2.1160     0.4860 ha         1 GYY       0.112000
     54 HAY1         4.7380    -1.1320    -1.0120 ha         1 GYY       0.108000
     55 HAZ1         7.8320    -3.9430    -0.1460 ha         1 GYY       0.112000
     56 HBA1         5.5210    -3.4300    -0.8950 ha         1 GYY       0.111000
     57 HAH1         2.3770     0.9530    -1.3030 hn         1 GYY       0.310500
     58 H1          -2.2450    -0.5620    -0.9190 hn         1 GYY       0.405000
     59 H2          -8.5700     0.5090     0.9240 hn         1 GYY       0.404000
     60 H3         -13.4920     0.4290     0.8900 hn         1 GYY       0.391000
     61 HAU2       -14.2570    -0.5190    -0.1640 hn         1 GYY       0.391000
@<TRIPOS>BOND
     1     1     2 ar  
     2     1     3 ar  
     3     1    28 1   
     4     2     4 ar  
     5     2    29 1   
     6     3    17 ar  
     7     3    30 1   
     8     4     5 1   
     9     4    18 ar  
    10     5     6 1   
    11     5    31 1   
    12     5    32 1   
    13     6    23 1   
    14     6    27 2   
    15     7     8 1   
    16     7    23 1   
    17     7    33 1   
    18     7    34 1   
    19     8     9 1   
    20     8    35 1   
    21     8    36 1   
    22     9    24 1   
    23     9    37 1   
    24     9    38 1   
    25    10    11 1   
    26    10    24 1   
    27    10    39 1   
    28    10    40 1   
    29    11    12 1   
    30    11    41 1   
    31    11    42 1   
    32    12    13 1   
    33    12    43 1   
    34    12    44 1   
    35    13    25 1   
    36    13    45 1   
    37    13    46 1   
    38    14    15 1   
    39    14    25 1   
    40    14    47 1   
    41    14    48 1   
    42    15    16 1   
    43    15    49 1   
    44    15    50 1   
    45    16    26 1   
    46    16    51 1   
    47    16    52 1   
    48    17    18 ar  
    49    17    19 ar  
    50    18    20 ar  
    51    19    21 ar  
    52    19    53 1   
    53    20    22 ar  
    54    20    54 1   
    55    21    22 ar  
    56    21    55 1   
    57    22    56 1   
    58    23    57 1   
    59    24    58 1   
    60    25    59 1   
    61    26    60 1   
    62    26    61 1   
@<TRIPOS>SUBSTRUCTURE
     1 GYY         1 TEMP              0 ****  ****    0 ROOT
