@<TRIPOS>MOLECULE
GYY
   61    62     1     0     0
SMALL
No Charge or Current Charge


@<TRIPOS>ATOM
      1 CAA          7.4320     2.7150     0.2250 ca         1 GYY      -0.106000
      2 CAB          6.2630     2.4550    -0.5040 ca         1 GYY      -0.091000
      3 CAD          8.1760     1.6540     0.7580 ca         1 GYY      -0.094000
      4 CAE          5.8180     1.1330    -0.7150 ca         1 GYY      -0.054300
      5 CAF          4.5270     0.9330    -1.5180 c3         1 GYY      -0.114100
      6 CAG          3.3210     0.7030    -0.5970 c          1 GYY       0.596100
      7 CAI          1.5470    -0.9630     0.0590 c3         1 GYY       0.106000
      8 CAJ          0.2350    -0.4110    -0.5320 c3         1 GYY      -0.099400
      9 CAK         -1.0060    -0.8760     0.2520 c3         1 GYY       0.163800
     10 CAM         -3.4840    -0.6880     0.3200 c3         1 GYY       0.160800
     11 CAN         -4.6840    -0.0370    -0.3960 c3         1 GYY      -0.078400
     12 CAO         -6.0380    -0.3790     0.2660 c3         1 GYY      -0.079400
     13 CAP         -7.2380     0.2720    -0.4500 c3         1 GYY       0.161800
     14 CAR         -9.7170     0.4590    -0.3850 c3         1 GYY       0.159800
     15 CAS        -10.9640    -0.0080     0.3910 c3         1 GYY      -0.082400
     16 CAT        -12.2710     0.5420    -0.2130 c3         1 GYY       0.149800
     17 CAV          7.7510     0.3280     0.5640 ca         1 GYY      -0.035000
     18 CAW          6.5710     0.0530    -0.1740 ca         1 GYY      -0.017000
     19 CAX          8.5110    -0.7240     1.1110 ca         1 GYY      -0.096000
     20 CAY          6.1800    -1.2970    -0.3440 ca         1 GYY      -0.100000
     21 CAZ          8.1090    -2.0560     0.9330 ca         1 GYY      -0.109000
     22 CBA          6.9440    -2.3410     0.2060 ca         1 GYY      -0.106000
     23 NAH          2.7220    -0.5350    -0.7040 ns         1 GYY      -0.515900
     24 NAL         -2.2280    -0.3200    -0.3550 n7         1 GYY      -0.864400
     25 NAQ         -8.4950    -0.0960     0.2240 n7         1 GYY      -0.860400
     26 NAU        -13.4540     0.0830     0.5380 n8         1 GYY      -0.992200
     27 OAC          2.9060     1.5630     0.1670 o          1 GYY      -0.586100
     28 HAA1         7.7610     3.7400     0.3780 ha         1 GYY       0.114000
     29 HAB1         5.6970     3.2920    -0.9060 ha         1 GYY       0.110000
     30 HAD1         9.0810     1.8640     1.3240 ha         1 GYY       0.113000
     31 HAF1         4.3190     1.8340    -2.1070 hc         1 GYY       0.062200
     32 HAF2         4.6340     0.1050    -2.2270 hc         1 GYY       0.062200
     33 HAI1         1.6540    -0.6310     1.1000 h1         1 GYY       0.051700
     34 HAI2         1.5140    -2.0610     0.0580 h1         1 GYY       0.051700
     35 HAJ2         0.2710     0.6860    -0.5330 hc         1 GYY       0.049700
     36 HAJ1         0.1490    -0.7340    -1.5770 hc         1 GYY       0.049700
     37 HAK1        -1.0420    -1.9740     0.2490 h1         1 GYY       0.033200
     38 HAK2        -0.9130    -0.5460     1.2970 h1         1 GYY       0.033200
     39 HAM2        -3.4670    -0.3530     1.3670 h1         1 GYY       0.030200
     40 HAM1        -3.6140    -1.7790     0.3190 h1         1 GYY       0.030200
     41 HAN2        -4.5530     1.0520    -0.4020 hc         1 GYY       0.045200
     42 HAN1        -4.7040    -0.3660    -1.4430 hc         1 GYY       0.045200
     43 HAO2        -6.1700    -1.4680     0.2720 hc         1 GYY       0.046200
     44 HAO1        -6.0190    -0.0500     1.3130 hc         1 GYY       0.046200
     45 HAP1        -7.1090     1.3630    -0.4480 h1         1 GYY       0.028200
     46 HAP2        -7.2550    -0.0620    -1.4970 h1         1 GYY       0.028200
     47 HAR1        -9.8040     0.1320    -1.4300 h1         1 GYY       0.026700
     48 HAR2        -9.6810     1.5580    -0.3780 h1         1 GYY       0.026700
     49 HAS2       -10.9980    -1.1040     0.3900 hc         1 GYY       0.053200
     50 HAS1       -10.8820     0.3150     1.4360 hc         1 GYY       0.053200
     51 HAT2       -12.2510     1.6410    -0.2010 h1         1 GYY       0.025700
     52 HAT1       -12.3650     0.2080    -1.2550 h1         1 GYY       0.025700
     53 HAX1         9.4160    -0.5100     1.6760 ha         1 GYY       0.112000
     54 HAY1         5.2880    -1.5620    -0.9000 ha         1 GYY       0.108000
     55 HAZ1         8.6980    -2.8650     1.3580 ha         1 GYY       0.112000
     56 HBA1         6.6310    -3.3730     0.0670 ha         1 GYY       0.111000
     57 HAH1         3.1180    -1.1790    -1.3780 hn         1 GYY       0.310500
     58 H1          -2.2790    -0.6500    -1.3260 hn         1 GYY       0.405000
     59 H2          -8.4440     0.2340     1.1950 hn         1 GYY       0.404000
     60 H3         -13.4160     0.4660     1.4900 hn         1 GYY       0.391000
     61 HAU2       -14.2950     0.5190     0.1370 hn         1 GYY       0.391000
@<TRIPOS>BOND
     1     1     2 ar  
     2     1     3 ar  
     3     1    28 1   
     4     2     4 ar  
     5     2    29 1   
     6     3    17 ar  
     7     3    30 1   
     8     4     5 1   
     9     4    18 ar  
    10     5     6 1   
    11     5    31 1   
    12     5    32 1   
    13     6    23 1   
    14     6    27 2   
    15     7     8 1   
    16     7    23 1   
    17     7    33 1   
    18     7    34 1   
    19     8     9 1   
    20     8    35 1   
    21     8    36 1   
    22     9    24 1   
    23     9    37 1   
    24     9    38 1   
    25    10    11 1   
    26    10    24 1   
    27    10    39 1   
    28    10    40 1   
    29    11    12 1   
    30    11    41 1   
    31    11    42 1   
    32    12    13 1   
    33    12    43 1   
    34    12    44 1   
    35    13    25 1   
    36    13    45 1   
    37    13    46 1   
    38    14    15 1   
    39    14    25 1   
    40    14    47 1   
    41    14    48 1   
    42    15    16 1   
    43    15    49 1   
    44    15    50 1   
    45    16    26 1   
    46    16    51 1   
    47    16    52 1   
    48    17    18 ar  
    49    17    19 ar  
    50    18    20 ar  
    51    19    21 ar  
    52    19    53 1   
    53    20    22 ar  
    54    20    54 1   
    55    21    22 ar  
    56    21    55 1   
    57    22    56 1   
    58    23    57 1   
    59    24    58 1   
    60    25    59 1   
    61    26    60 1   
    62    26    61 1   
@<TRIPOS>SUBSTRUCTURE
     1 GYY         1 TEMP              0 ****  ****    0 ROOT
