@<TRIPOS>MOLECULE
GYZ
   37    38     1     0     0
SMALL
No Charge or Current Charge


@<TRIPOS>ATOM
      1 C2          -3.1790    -1.3710    -0.2600 c6         1 GYZ       0.086000
      2 C1          -1.8710    -0.5520    -0.0850 c2         1 GYZ       0.550600
      3 C10         -3.0080     2.9400     0.5220 c3         1 GYZ      -0.096100
      4 C5          -3.1050     1.4050     0.7150 c6         1 GYZ       0.151300
      5 C4          -4.4480     0.7910     0.2180 c6         1 GYZ       0.144300
      6 C3          -4.3610    -0.7340     0.5200 c6         1 GYZ       0.187300
      7 O6          -3.0560    -2.7780     0.1170 oh         1 GYZ      -0.714000
      8 O8          -5.5840    -1.4270     0.2090 oh         1 GYZ      -0.639000
      9 O9          -4.6650     1.0370    -1.1950 oh         1 GYZ      -0.694000
     10 O11         -1.9680     0.8240     0.0390 os         1 GYZ      -0.437600
     11 N12         -0.7000    -1.1020    -0.1830 n2         1 GYZ      -0.340700
     12 O14          0.4040    -0.1930    -0.0550 os         1 GYZ      -0.304100
     13 C15          1.6650    -0.7470    -0.1580 c          1 GYZ       0.654100
     14 O16          1.8990    -1.9350    -0.3460 o          1 GYZ      -0.481000
     15 N17          2.6050     0.2600    -0.0120 ns         1 GYZ      -0.148000
     16 C18          4.0260     0.2510    -0.0310 ca         1 GYZ      -0.003000
     17 C19          4.7960    -0.9180    -0.2230 ca         1 GYZ      -0.152500
     18 C20          6.2000    -0.8510    -0.2300 ca         1 GYZ      -0.082000
     19 C21          6.8490     0.3800    -0.0470 ca         1 GYZ      -0.138000
     20 C22          6.0930     1.5470     0.1440 ca         1 GYZ      -0.082000
     21 C23          4.6890     1.4800     0.1510 ca         1 GYZ      -0.152500
     22 H1          -3.4240    -1.3060    -1.3310 h1         1 GYZ       0.088700
     23 H2          -3.0260     3.2170    -0.5390 hc         1 GYZ       0.054033
     24 H3          -3.8380     3.4540     1.0200 hc         1 GYZ       0.054033
     25 H4          -2.0760     3.3280     0.9500 hc         1 GYZ       0.054033
     26 H5          -3.0040     1.1980     1.7910 h1         1 GYZ       0.056700
     27 H6          -5.2710     1.2160     0.8130 h1         1 GYZ       0.057700
     28 H7          -4.1530    -0.8490     1.5950 h1         1 GYZ       0.047700
     29 H8          -2.2050    -3.1120    -0.2610 ho         1 GYZ       0.540000
     30 H9          -5.3190    -2.3740     0.1460 ho         1 GYZ       0.466000
     31 H10         -5.0100     1.9550    -1.2810 ho         1 GYZ       0.510000
     32 H11          2.1990     1.1740     0.1350 hn         1 GYZ       0.165000
     33 H12          4.3290    -1.8870    -0.3670 ha         1 GYZ       0.128000
     34 H13          6.7860    -1.7560    -0.3780 ha         1 GYZ       0.113000
     35 H14          7.9360     0.4300    -0.0520 ha         1 GYZ       0.115000
     36 H15          6.5930     2.5030     0.2860 ha         1 GYZ       0.113000
     37 H16          4.1140     2.3920     0.3000 ha         1 GYZ       0.128000
@<TRIPOS>BOND
     1     1     2 1   
     2     1     6 1   
     3     1     7 1   
     4     1    22 1   
     5     2    10 1   
     6     2    11 2   
     7     3     4 1   
     8     3    23 1   
     9     3    24 1   
    10     3    25 1   
    11     4     5 1   
    12     4    10 1   
    13     4    26 1   
    14     5     6 1   
    15     5     9 1   
    16     5    27 1   
    17     6     8 1   
    18     6    28 1   
    19     7    29 1   
    20     8    30 1   
    21     9    31 1   
    22    11    12 1   
    23    12    13 1   
    24    13    14 2   
    25    13    15 1   
    26    15    16 1   
    27    15    32 1   
    28    16    17 ar  
    29    16    21 ar  
    30    17    18 ar  
    31    17    33 1   
    32    18    19 ar  
    33    18    34 1   
    34    19    20 ar  
    35    19    35 1   
    36    20    21 ar  
    37    20    36 1   
    38    21    37 1   
@<TRIPOS>SUBSTRUCTURE
     1 GYZ         1 TEMP              0 ****  ****    0 ROOT
