@<TRIPOS>MOLECULE
GYZ
   37    38     1     0     0
SMALL
abcg2


@<TRIPOS>ATOM
      1 C2          -2.9820    -1.2920    -0.2550 c6         1 GYZ       0.086000
      2 C1          -1.7700    -0.3920    -0.1120 c2         1 GYZ       0.550600
      3 C10         -3.1330     2.9380     0.2480 c3         1 GYZ      -0.096100
      4 C5          -3.0790     1.4750     0.6180 c6         1 GYZ       0.151300
      5 C4          -4.3530     0.7090     0.2760 c6         1 GYZ       0.144300
      6 C3          -4.1350    -0.7620     0.5900 c6         1 GYZ       0.187300
      7 O6          -2.7210    -2.6070     0.1370 oh         1 GYZ      -0.714000
      8 O8          -5.3210    -1.4640     0.3470 oh         1 GYZ      -0.639000
      9 O9          -4.7130     0.8320    -1.0760 oh         1 GYZ      -0.694000
     10 O11         -1.9250     0.9220    -0.0510 os         1 GYZ      -0.437600
     11 N12         -0.6330    -0.9570    -0.1640 n2         1 GYZ      -0.340700
     12 O14          0.3920    -0.0370    -0.0650 os         1 GYZ      -0.304100
     13 C15          1.6160    -0.6020    -0.1770 c          1 GYZ       0.654100
     14 O16          1.8190    -1.7630    -0.4160 o          1 GYZ      -0.481000
     15 N17          2.5380     0.3710     0.0210 ns         1 GYZ      -0.148000
     16 C18          3.9310     0.2520    -0.0010 ca         1 GYZ      -0.003000
     17 C19          4.6190    -0.8880    -0.4160 ca         1 GYZ      -0.152500
     18 C20          6.0080    -0.8910    -0.4060 ca         1 GYZ      -0.082000
     19 C21          6.7310     0.2180     0.0050 ca         1 GYZ      -0.138000
     20 C22          6.0420     1.3540     0.4120 ca         1 GYZ      -0.082000
     21 C23          4.6580     1.3720     0.4110 ca         1 GYZ      -0.152500
     22 H1          -3.2790    -1.2410    -1.3130 h1         1 GYZ       0.088700
     23 H2          -3.2610     3.0820    -0.8250 hc         1 GYZ       0.054033
     24 H3          -3.9700     3.4130     0.7620 hc         1 GYZ       0.054033
     25 H4          -2.2230     3.4520     0.5550 hc         1 GYZ       0.054033
     26 H5          -2.9130     1.3800     1.6970 h1         1 GYZ       0.056700
     27 H6          -5.1380     1.0950     0.9400 h1         1 GYZ       0.057700
     28 H7          -3.8430    -0.8300     1.6500 h1         1 GYZ       0.047700
     29 H8          -2.0330    -2.9720    -0.4300 ho         1 GYZ       0.540000
     30 H9          -5.1940    -2.3790     0.6210 ho         1 GYZ       0.466000
     31 H10         -5.1560     1.6750    -1.2060 ho         1 GYZ       0.510000
     32 H11          2.1830     1.2840     0.2640 hn         1 GYZ       0.165000
     33 H12          4.0940    -1.7680    -0.7500 ha         1 GYZ       0.128000
     34 H13          6.5270    -1.7840    -0.7320 ha         1 GYZ       0.113000
     35 H14          7.8130     0.2010     0.0060 ha         1 GYZ       0.115000
     36 H15          6.5810     2.2340     0.7380 ha         1 GYZ       0.113000
     37 H16          4.1340     2.2630     0.7350 ha         1 GYZ       0.128000
@<TRIPOS>BOND
     1     1     2 1   
     2     1     6 1   
     3     1     7 1   
     4     1    22 1   
     5     2    10 1   
     6     2    11 2   
     7     3     4 1   
     8     3    23 1   
     9     3    24 1   
    10     3    25 1   
    11     4     5 1   
    12     4    10 1   
    13     4    26 1   
    14     5     6 1   
    15     5     9 1   
    16     5    27 1   
    17     6     8 1   
    18     6    28 1   
    19     7    29 1   
    20     8    30 1   
    21     9    31 1   
    22    11    12 1   
    23    12    13 1   
    24    13    14 2   
    25    13    15 1   
    26    15    16 1   
    27    15    32 1   
    28    16    17 ar  
    29    16    21 ar  
    30    17    18 ar  
    31    17    33 1   
    32    18    19 ar  
    33    18    34 1   
    34    19    20 ar  
    35    19    35 1   
    36    20    21 ar  
    37    20    36 1   
    38    21    37 1   
@<TRIPOS>SUBSTRUCTURE
     1 GYZ         1 TEMP              0 ****  ****    0 ROOT
