@<TRIPOS>MOLECULE
GZ0
   66    69     1     0     0
SMALL
No Charge or Current Charge


@<TRIPOS>ATOM
      1 O3B          0.9030    -1.8210     3.3540 o          1 GZ0      -0.840000
      2 PB           1.7190    -0.7500     2.7130 p5         1 GZ0       1.467800
      3 O2B          2.9300    -0.4020     3.5090 o          1 GZ0      -0.840000
      4 O1B          2.1440    -1.2440     1.2450 os         1 GZ0      -0.559400
      5 C11          3.2720    -0.6730     0.5750 c6         1 GZ0       0.422300
      6 C21          2.9990     0.7500    -0.0700 c6         1 GZ0       0.107300
      7 O21          2.6890     1.7910     0.8920 oh         1 GZ0      -0.763000
      8 C31          4.2270     1.2010    -0.9220 c6         1 GZ0       0.138300
      9 O31          5.2930     1.5630    -0.0320 oh         1 GZ0      -0.676000
     10 C41          4.6620     0.0850    -1.9270 c6         1 GZ0       0.144300
     11 O41          3.6530    -0.0700    -2.9520 oh         1 GZ0      -0.692000
     12 C51          4.8760    -1.2500    -1.1360 c6         1 GZ0       0.165300
     13 C61          5.2980    -2.4490    -2.0510 c3         1 GZ0       0.171300
     14 C71          5.4310    -3.7940    -1.2870 c3         1 GZ0       0.119600
     15 O71          5.9720    -4.8060    -2.1640 oh         1 GZ0      -0.679000
     16 O6A          6.5570    -2.2140    -2.7150 oh         1 GZ0      -0.726000
     17 O51          3.6510    -1.6110    -0.4510 os         1 GZ0      -0.460000
     18 O3A          0.9090     0.5250     2.2530 os         1 GZ0      -0.688800
     19 PA          -0.1840     0.9650     3.3020 p5         1 GZ0       1.447800
     20 O1A         -1.4070     0.1120     3.3180 o          1 GZ0      -0.846500
     21 O2A          0.3740     1.2080     4.6630 o          1 GZ0      -0.846500
     22 O5          -0.5220     2.3900     2.6230 os         1 GZ0      -0.565400
     23 C5          -1.4750     2.5320     1.5510 c3         1 GZ0       0.210600
     24 C4          -0.9360     1.9390     0.2080 c5         1 GZ0       0.159300
     25 C3          -1.6490     2.5060    -1.0590 c5         1 GZ0       0.101300
     26 O3          -0.9460     2.2240    -2.2770 oh         1 GZ0      -0.707000
     27 C2          -2.9740     1.7000    -0.9880 c5         1 GZ0       0.059300
     28 O2          -3.7040     1.7440    -2.2370 oh         1 GZ0      -0.740000
     29 O4          -1.2010     0.5140     0.1310 os         1 GZ0      -0.377000
     30 C1          -2.4360     0.2720    -0.5860 c5         1 GZ0       0.325300
     31 N9          -3.3230    -0.5520     0.2340 na         1 GZ0      -0.222500
     32 C10         -4.6690    -0.7100     0.1290 cc         1 GZ0       0.132000
     33 N3          -5.4650    -0.1200    -0.8410 na         1 GZ0      -0.913200
     34 C12         -6.7790    -0.4310    -0.8220 cc         1 GZ0       0.885100
     35 N2          -7.5100     0.1590    -1.7100 nv         1 GZ0      -1.072200
     36 C8          -2.9470    -1.4990     1.1790 cc         1 GZ0       0.518400
     37 N7          -4.0030    -2.2060     1.6230 nd         1 GZ0      -0.596000
     38 C9          -5.1030    -1.7120     0.9210 cd         1 GZ0       0.136500
     39 C6          -6.5410    -2.0720     0.8620 c          1 GZ0       0.664000
     40 O6          -7.0810    -2.9410     1.5350 o          1 GZ0      -0.560100
     41 N1          -7.2970    -1.3390    -0.0620 nd         1 GZ0      -0.821100
     42 H2           4.1090    -0.5890     1.2860 h2         1 GZ0       0.049700
     43 H3           2.1460     0.6270    -0.7560 h1         1 GZ0       0.062700
     44 H4           1.9250     1.4360     1.4340 ho         1 GZ0       0.547000
     45 H5           3.9350     2.0900    -1.5010 h1         1 GZ0       0.012700
     46 H6           4.8300     2.0420     0.6960 ho         1 GZ0       0.465000
     47 H7           5.6170     0.3800    -2.3880 h1         1 GZ0       0.037700
     48 H8           3.7200     0.7150    -3.5420 ho         1 GZ0       0.480000
     49 H9           5.6690    -1.1080    -0.3870 h1         1 GZ0       0.047700
     50 H10          4.5010    -2.5800    -2.7960 h1         1 GZ0       0.104700
     51 H11          6.0830    -3.6500    -0.4130 h1         1 GZ0       0.059700
     52 H12          4.4410    -4.0930    -0.9150 h1         1 GZ0       0.059700
     53 H13          5.9640    -5.6570    -1.6680 ho         1 GZ0       0.443000
     54 H14          6.8800    -3.1280    -2.9140 ho         1 GZ0       0.486000
     55 H16         -2.4310     2.0610     1.8130 h1         1 GZ0       0.014200
     56 H17         -1.6740     3.6000     1.3980 h1         1 GZ0       0.014200
     57 H18          0.1440     2.1200     0.1540 h1         1 GZ0       0.103700
     58 H19         -1.8300     3.5860    -0.9680 h1         1 GZ0       0.047700
     59 H20         -1.6440     1.9240    -2.9080 ho         1 GZ0       0.496000
     60 H21         -3.6060     2.0900    -0.1760 h1         1 GZ0       0.083700
     61 H22         -3.9660     2.6850    -2.3990 ho         1 GZ0       0.505000
     62 H23         -2.2150    -0.3150    -1.4860 h2         1 GZ0       0.067700
     63 H24         -5.1020     0.5680    -1.4940 hn         1 GZ0       0.503000
     64 H25         -8.4050    -0.2960    -1.8160 hn         1 GZ0       0.484000
     65 H26         -7.0360     0.3730    -2.5730 hn         1 GZ0       0.484000
     66 H27         -1.9130    -1.6350     1.4800 h5         1 GZ0       0.155100
@<TRIPOS>BOND
     1     1     2 1   
     2     2     3 1   
     3     2     4 1   
     4     2    18 1   
     5     4     5 1   
     6     5     6 1   
     7     5    17 1   
     8     5    42 1   
     9     6     7 1   
    10     6     8 1   
    11     6    43 1   
    12     7    44 1   
    13     8     9 1   
    14     8    10 1   
    15     8    45 1   
    16     9    46 1   
    17    10    11 1   
    18    10    12 1   
    19    10    47 1   
    20    11    48 1   
    21    12    13 1   
    22    12    17 1   
    23    12    49 1   
    24    13    14 1   
    25    13    16 1   
    26    13    50 1   
    27    14    15 1   
    28    14    51 1   
    29    14    52 1   
    30    15    53 1   
    31    16    54 1   
    32    18    19 1   
    33    19    20 1   
    34    19    21 1   
    35    19    22 1   
    36    22    23 1   
    37    23    24 1   
    38    23    55 1   
    39    23    56 1   
    40    24    25 1   
    41    24    29 1   
    42    24    57 1   
    43    25    26 1   
    44    25    27 1   
    45    25    58 1   
    46    26    59 1   
    47    27    28 1   
    48    27    30 1   
    49    27    60 1   
    50    28    61 1   
    51    29    30 1   
    52    30    31 1   
    53    30    62 1   
    54    31    32 1   
    55    31    36 1   
    56    32    33 1   
    57    32    38 2   
    58    33    34 1   
    59    33    63 1   
    60    34    35 1   
    61    34    41 2   
    62    35    64 1   
    63    35    65 1   
    64    36    37 2   
    65    36    66 1   
    66    37    38 1   
    67    38    39 1   
    68    39    40 2   
    69    39    41 1   
@<TRIPOS>SUBSTRUCTURE
     1 GZ0         1 TEMP              0 ****  ****    0 ROOT
