@<TRIPOS>MOLECULE
GZ0
   66    69     1     0     0
SMALL
bcc


@<TRIPOS>ATOM
      1 O3B          0.9510     0.2280    -0.0110 o          1 GZ0      -0.840000
      2 PB           1.8710     0.9730     0.8980 p5         1 GZ0       1.467800
      3 O2B          2.2290     0.4460     2.2490 o          1 GZ0      -0.840000
      4 O1B          3.2730     1.3360     0.0760 os         1 GZ0      -0.536200
      5 C11          4.3330     0.4530     0.1520 c6         1 GZ0       0.375900
      6 C21          5.5450     1.0650    -0.5440 c6         1 GZ0       0.084100
      7 O21          6.0110     2.2170     0.1160 oh         1 GZ0      -0.640800
      8 C31          6.6860     0.0490    -0.5570 c6         1 GZ0       0.115100
      9 O31          7.1440    -0.2350     0.7440 oh         1 GZ0      -0.613800
     10 C41          6.2160    -1.2800    -1.1590 c6         1 GZ0       0.121100
     11 O41          5.9380    -1.1390    -2.5300 oh         1 GZ0      -0.569800
     12 C51          4.9460    -1.7330    -0.4480 c6         1 GZ0       0.142100
     13 C61          4.3300    -3.0050    -1.0320 c3         1 GZ0       0.148100
     14 C71          3.0740    -3.3980    -0.2660 c3         1 GZ0       0.096400
     15 O71          2.5140    -4.5360    -0.8810 oh         1 GZ0      -0.616800
     16 O6A          5.2820    -4.0430    -1.0610 oh         1 GZ0      -0.603800
     17 O51          3.9640    -0.7230    -0.5170 os         1 GZ0      -0.413600
     18 O3A          1.4310     2.5520     0.9970 os         1 GZ0      -0.688800
     19 PA          -0.0530     3.0990     1.4180 p5         1 GZ0       1.447800
     20 O1A         -0.7650     2.1220     2.2980 o          1 GZ0      -0.846500
     21 O2A          0.1110     4.5270     1.8340 o          1 GZ0      -0.846500
     22 O5          -0.6960     3.0460    -0.1010 os         1 GZ0      -0.542200
     23 C5          -2.0730     3.3180    -0.2260 c3         1 GZ0       0.187400
     24 C4          -2.5630     2.6910    -1.5140 c5         1 GZ0       0.136100
     25 C3          -4.0600     2.8560    -1.7180 c5         1 GZ0       0.078100
     26 O3          -4.3440     2.7230    -3.0830 oh         1 GZ0      -0.584800
     27 C2          -4.5900     1.6640    -0.9190 c5         1 GZ0       0.036100
     28 O2          -5.8420     1.1930    -1.3380 oh         1 GZ0      -0.617800
     29 O4          -2.3450     1.2760    -1.4930 os         1 GZ0      -0.330600
     30 C1          -3.5170     0.5990    -1.1870 c5         1 GZ0       0.272800
     31 N9          -3.2850    -0.2580    -0.0320 na         1 GZ0      -0.243900
     32 C10         -4.1320    -1.2040     0.4360 cc         1 GZ0      -0.021000
     33 N3          -5.3800    -1.5440     0.0130 na         1 GZ0      -0.719600
     34 C12         -5.9850    -2.5590     0.6970 cc         1 GZ0       0.885100
     35 N2          -7.2340    -2.8670     0.3150 nv         1 GZ0      -0.961800
     36 C8          -2.1560    -0.3470     0.7530 cc         1 GZ0       0.518400
     37 N7          -2.2680    -1.2620     1.6690 nd         1 GZ0      -0.596000
     38 C9          -3.5040    -1.8260     1.4800 cd         1 GZ0       0.201800
     39 C6          -4.1840    -2.8970     2.1750 c          1 GZ0       0.664000
     40 O6          -3.7100    -3.4970     3.1320 o          1 GZ0      -0.560100
     41 N1          -5.4350    -3.2000     1.6910 nd         1 GZ0      -0.821100
     42 H2           4.5760     0.2210     1.2010 h2         1 GZ0       0.049700
     43 H3           5.2620     1.2820    -1.5830 h1         1 GZ0       0.062700
     44 H4           5.2830     2.8410     0.1980 ho         1 GZ0       0.448000
     45 H5           7.5020     0.4460    -1.1810 h1         1 GZ0       0.012700
     46 H6           7.2850     0.6010     1.2020 ho         1 GZ0       0.426000
     47 H7           6.9990    -2.0300    -0.9810 h1         1 GZ0       0.037700
     48 H8           6.7590    -0.9300    -2.9870 ho         1 GZ0       0.381000
     49 H9           5.2150    -1.9210     0.6030 h1         1 GZ0       0.047700
     50 H10          4.0570    -2.8210    -2.0750 h1         1 GZ0       0.104700
     51 H11          3.3410    -3.5950     0.7820 h1         1 GZ0       0.059700
     52 H12          2.3760    -2.5540    -0.2670 h1         1 GZ0       0.059700
     53 H13          1.6680    -4.7120    -0.4610 ho         1 GZ0       0.404000
     54 H14          5.4880    -4.2990    -0.1550 ho         1 GZ0       0.387000
     55 H16         -2.6330     2.9160     0.6270 h1         1 GZ0       0.014200
     56 H17         -2.2680     4.4000    -0.2440 h1         1 GZ0       0.014200
     57 H18         -2.0050     3.1030    -2.3600 h1         1 GZ0       0.103700
     58 H19         -4.4250     3.8080    -1.3070 h1         1 GZ0       0.047700
     59 H20         -5.2830     2.5260    -3.1780 ho         1 GZ0       0.397000
     60 H21         -4.5920     1.9240     0.1470 h1         1 GZ0       0.083700
     61 H22         -6.5410     1.6690    -0.8750 ho         1 GZ0       0.406000
     62 H23         -3.8170    -0.0510    -2.0180 h2         1 GZ0       0.067700
     63 H24         -5.8770    -0.9810    -0.6660 hn         1 GZ0       0.447800
     64 H25         -7.6540    -3.6880     0.7150 hn         1 GZ0       0.428800
     65 H26         -7.6030    -2.5560    -0.5670 hn         1 GZ0       0.428800
     66 H27         -1.2930     0.2820     0.5960 h5         1 GZ0       0.155100
@<TRIPOS>BOND
     1     1     2 1   
     2     2     3 1   
     3     2     4 1   
     4     2    18 1   
     5     4     5 1   
     6     5     6 1   
     7     5    17 1   
     8     5    42 1   
     9     6     7 1   
    10     6     8 1   
    11     6    43 1   
    12     7    44 1   
    13     8     9 1   
    14     8    10 1   
    15     8    45 1   
    16     9    46 1   
    17    10    11 1   
    18    10    12 1   
    19    10    47 1   
    20    11    48 1   
    21    12    13 1   
    22    12    17 1   
    23    12    49 1   
    24    13    14 1   
    25    13    16 1   
    26    13    50 1   
    27    14    15 1   
    28    14    51 1   
    29    14    52 1   
    30    15    53 1   
    31    16    54 1   
    32    18    19 1   
    33    19    20 1   
    34    19    21 1   
    35    19    22 1   
    36    22    23 1   
    37    23    24 1   
    38    23    55 1   
    39    23    56 1   
    40    24    25 1   
    41    24    29 1   
    42    24    57 1   
    43    25    26 1   
    44    25    27 1   
    45    25    58 1   
    46    26    59 1   
    47    27    28 1   
    48    27    30 1   
    49    27    60 1   
    50    28    61 1   
    51    29    30 1   
    52    30    31 1   
    53    30    62 1   
    54    31    32 1   
    55    31    36 1   
    56    32    33 1   
    57    32    38 2   
    58    33    34 1   
    59    33    63 1   
    60    34    35 1   
    61    34    41 2   
    62    35    64 1   
    63    35    65 1   
    64    36    37 2   
    65    36    66 1   
    66    37    38 1   
    67    38    39 1   
    68    39    40 2   
    69    39    41 1   
@<TRIPOS>SUBSTRUCTURE
     1 GZ0         1 TEMP              0 ****  ****    0 ROOT
