@<TRIPOS>MOLECULE
GZ2
   22    23     1     0     0
SMALL
bcc


@<TRIPOS>ATOM
      1 O13         -4.0130     1.1210     0.1130 o          1 GZ2      -0.536100
      2 C11         -3.0070     0.4270     0.0580 c          1 GZ2       0.592300
      3 C12         -1.6870     1.0160    -0.0390 ce         1 GZ2      -0.360200
      4 C7          -0.5510     0.2750    -0.0660 c2         1 GZ2       0.213800
      5 C8          -0.5760    -1.2210    -0.1040 c6         1 GZ2      -0.057200
      6 C9          -1.9230    -1.7350    -0.5910 c6         1 GZ2      -0.066400
      7 C10         -3.0770    -1.0770     0.1450 c6         1 GZ2      -0.182400
      8 N6           0.6530     0.9360    -0.0790 nu         1 GZ2      -0.745700
      9 C5           1.9060     0.4230     0.0350 cc         1 GZ2       0.651400
     10 N4           2.2870    -0.7900     0.3690 nd         1 GZ2      -0.428000
     11 N3           3.6230    -0.7670     0.3520 nd         1 GZ2      -0.022000
     12 N2           4.0690     0.3790     0.0420 nc         1 GZ2      -0.192800
     13 N1           3.0080     1.1510    -0.1690 na         1 GZ2      -0.209400
     14 H12         -1.6270     2.0990    -0.0370 ha         1 GZ2       0.143000
     15 H8           0.2170    -1.5940    -0.7500 hc         1 GZ2       0.081700
     16 H8A         -0.3550    -1.6050     0.8960 hc         1 GZ2       0.081700
     17 H9          -2.0150    -1.5420    -1.6630 hc         1 GZ2       0.053200
     18 H9A         -1.9610    -2.8170    -0.4630 hc         1 GZ2       0.053200
     19 H10         -3.0460    -1.3460     1.2070 hc         1 GZ2       0.072700
     20 H10A        -4.0410    -1.4160    -0.2380 hc         1 GZ2       0.072700
     21 HN6          0.5990     1.9440    -0.1130 hn         1 GZ2       0.449800
     22 HN1          3.1130     2.1200    -0.4360 hn         1 GZ2       0.336700
@<TRIPOS>BOND
     1     1     2 2   
     2     2     3 1   
     3     2     7 1   
     4     3     4 2   
     5     3    14 1   
     6     4     5 1   
     7     4     8 1   
     8     5     6 1   
     9     5    15 1   
    10     5    16 1   
    11     6     7 1   
    12     6    17 1   
    13     6    18 1   
    14     7    19 1   
    15     7    20 1   
    16     8     9 1   
    17     8    21 1   
    18     9    10 2   
    19     9    13 1   
    20    10    11 1   
    21    11    12 2   
    22    12    13 1   
    23    13    22 1   
@<TRIPOS>SUBSTRUCTURE
     1 GZ2         1 TEMP              0 ****  ****    0 ROOT
