@<TRIPOS>MOLECULE
GZ2
   22    23     1     0     0
SMALL
No Charge or Current Charge


@<TRIPOS>ATOM
      1 O13         -3.9910     1.1720     0.0470 o          1 GZ2      -0.536100
      2 C11         -3.0060     0.4500     0.0920 c          1 GZ2       0.592300
      3 C12         -1.6300     1.0020     0.0400 ce         1 GZ2      -0.410200
      4 C7          -0.5380     0.2310    -0.1060 c2         1 GZ2       0.213800
      5 C8          -0.6200    -1.2910    -0.2100 c6         1 GZ2      -0.057200
      6 C9          -2.0260    -1.7840    -0.6320 c6         1 GZ2      -0.066400
      7 C10         -3.1210    -1.0740     0.1970 c6         1 GZ2      -0.182400
      8 N6           0.6780     0.8940    -0.1790 nu         1 GZ2      -0.800900
      9 C5           1.9600     0.4600     0.0370 cc         1 GZ2       0.651400
     10 N4           2.3370    -0.7190     0.4670 nd         1 GZ2      -0.428000
     11 N3           3.7110    -0.6710     0.5520 nd         1 GZ2      -0.022000
     12 N2           4.1770     0.4990     0.1980 nc         1 GZ2      -0.192800
     13 N1           3.0710     1.2170    -0.1250 na         1 GZ2      -0.259700
     14 H12         -1.5670     2.0860     0.0800 ha         1 GZ2       0.193000
     15 H8           0.1210    -1.6610    -0.9300 hc         1 GZ2       0.081700
     16 H8A         -0.3560    -1.7260     0.7630 hc         1 GZ2       0.081700
     17 H9          -2.1830    -1.5760    -1.7000 hc         1 GZ2       0.053200
     18 H9A         -2.0970    -2.8740    -0.5090 hc         1 GZ2       0.053200
     19 H10         -2.9310    -1.3240     1.2490 hc         1 GZ2       0.072700
     20 H10A        -4.1380    -1.4000    -0.0540 hc         1 GZ2       0.072700
     21 HN6          0.6310     1.8920    -0.3650 hn         1 GZ2       0.505000
     22 HN1          3.1150     2.1760    -0.4410 hn         1 GZ2       0.387000
@<TRIPOS>BOND
     1     1     2 2   
     2     2     3 1   
     3     2     7 1   
     4     3     4 2   
     5     3    14 1   
     6     4     5 1   
     7     4     8 1   
     8     5     6 1   
     9     5    15 1   
    10     5    16 1   
    11     6     7 1   
    12     6    17 1   
    13     6    18 1   
    14     7    19 1   
    15     7    20 1   
    16     8     9 1   
    17     8    21 1   
    18     9    10 2   
    19     9    13 1   
    20    10    11 1   
    21    11    12 2   
    22    12    13 1   
    23    13    22 1   
@<TRIPOS>SUBSTRUCTURE
     1 GZ2         1 TEMP              0 ****  ****    0 ROOT
