@<TRIPOS>MOLECULE
GZ3
   14    13     1     0     0
SMALL
No Charge or Current Charge


@<TRIPOS>ATOM
      1 CAI         -2.5240     0.3210    -0.1090 c          1 GZ3       0.695200
      2 OAB         -2.7100     1.5280    -0.1530 o          1 GZ3      -0.807500
      3 OAD         -3.4570    -0.4680    -0.1180 o          1 GZ3      -0.807500
      4 CAH         -1.0990    -0.2030    -0.0180 ce         1 GZ3      -0.230400
      5 CAA         -0.9280    -1.7250    -0.0170 c3         1 GZ3      -0.017900
      6 CAG         -0.0370     0.6640     0.0250 c2         1 GZ3      -0.275600
      7 PAJ          1.7860     0.2370     0.1440 p5         1 GZ3       1.179100
      8 OAE          2.5600     1.4910     0.3660 o          1 GZ3      -0.960167
      9 OAF          1.9610    -0.7970     1.2040 o          1 GZ3      -0.960167
     10 OAC          2.1380    -0.4120    -1.1500 o          1 GZ3      -0.960167
     11 HAG         -0.1690     1.7410     0.0050 ha         1 GZ3       0.138000
     12 HAA1        -1.6730    -2.2250    -0.6470 hc         1 GZ3       0.002367
     13 HAA2         0.0440    -2.0420    -0.4080 hc         1 GZ3       0.002367
     14 HAA3        -1.0270    -2.1310     0.9970 hc         1 GZ3       0.002367
@<TRIPOS>BOND
     1     1     2 1   
     2     1     3 1   
     3     1     4 1   
     4     4     5 1   
     5     4     6 2   
     6     5    12 1   
     7     5    13 1   
     8     5    14 1   
     9     6     7 1   
    10     6    11 1   
    11     7     8 1   
    12     7     9 1   
    13     7    10 1   
@<TRIPOS>SUBSTRUCTURE
     1 GZ3         1 TEMP              0 ****  ****    0 ROOT
