@<TRIPOS>MOLECULE
GZ3
   14    13     1     0     0
SMALL
abcg2


@<TRIPOS>ATOM
      1 CAI         -2.4740     0.3420    -0.1330 c          1 GZ3       0.695200
      2 OAB         -2.6040     1.5820    -0.2200 o          1 GZ3      -0.807500
      3 OAD         -3.4140    -0.4820    -0.0810 o          1 GZ3      -0.807500
      4 CAH         -1.0670    -0.2370     0.0090 ce         1 GZ3      -0.230400
      5 CAA         -0.9740    -1.7270     0.1670 c3         1 GZ3      -0.017900
      6 CAG          0.0070     0.5620    -0.0300 c2         1 GZ3      -0.275600
      7 PAJ          1.8220     0.2090    -0.0050 p5         1 GZ3       1.179100
      8 OAE          2.4020     1.4130     0.7530 o          1 GZ3      -0.960167
      9 OAF          2.0570    -1.1250     0.7160 o          1 GZ3      -0.960167
     10 OAC          2.2040     0.1820    -1.4910 o          1 GZ3      -0.960167
     11 HAG         -0.2230     1.6180    -0.1720 ha         1 GZ3       0.138000
     12 HAA1        -1.3050    -2.2440    -0.7390 hc         1 GZ3       0.002367
     13 HAA2         0.0510    -2.0210     0.3770 hc         1 GZ3       0.002367
     14 HAA3        -1.6160    -2.0930     0.9720 hc         1 GZ3       0.002367
@<TRIPOS>BOND
     1     1     2 1   
     2     1     3 1   
     3     1     4 1   
     4     4     5 1   
     5     4     6 2   
     6     5    12 1   
     7     5    13 1   
     8     5    14 1   
     9     6     7 1   
    10     6    11 1   
    11     7     8 1   
    12     7     9 1   
    13     7    10 1   
@<TRIPOS>SUBSTRUCTURE
     1 GZ3         1 TEMP              0 ****  ****    0 ROOT
