@<TRIPOS>MOLECULE
GZ4
   48    51     1     0     0
SMALL
No Charge or Current Charge


@<TRIPOS>ATOM
      1 C4          -2.7120    -1.2920     0.2120 cc         1 GZ4       0.213500
      2 C5          -1.3690    -1.3430    -0.3270 cc         1 GZ4       0.163000
      3 C6          -1.2950    -3.7910    -0.2010 c          1 GZ4       0.633000
      4 N1          -0.7490    -2.5810    -0.4930 ns         1 GZ4      -0.512000
      5 C7          -3.3340    -2.6220     0.5340 c          1 GZ4       0.492500
      6 C8          -1.4080     1.0470    -0.3640 ca         1 GZ4      -0.026000
      7 N2          -2.5550    -3.7260     0.2910 ns         1 GZ4      -0.466500
      8 C9          -0.7980     2.3200    -0.5330 ca         1 GZ4      -0.156000
      9 C10         -1.4800     3.5140    -0.2330 ca         1 GZ4       0.038700
     10 C11         -0.7750     4.8520    -0.4400 c3         1 GZ4      -0.076800
     11 N3          -0.7350    -0.1510    -0.6920 na         1 GZ4       0.052000
     12 C13          1.7930    -0.0320    -0.5340 c3         1 GZ4      -0.102400
     13 C14          3.1150     0.0530    -1.3250 c3         1 GZ4      -0.020100
     14 C15          4.3230     0.1370    -0.4010 ca         1 GZ4      -0.109300
     15 O1          -4.4600    -2.7660     0.9900 o          1 GZ4      -0.404000
     16 N           -3.4240    -0.1820     0.4370 nd         1 GZ4      -0.467000
     17 O           -0.7010    -4.8370    -0.3670 o          1 GZ4      -0.452000
     18 C3          -2.7260     1.0000     0.1570 ca         1 GZ4       0.197000
     19 C2          -3.4030     2.1990     0.4450 ca         1 GZ4      -0.017000
     20 C1          -2.8010     3.4550     0.2530 ca         1 GZ4      -0.058300
     21 C           -3.5830     4.7230     0.5880 c3         1 GZ4      -0.062800
     22 C20          5.0080    -1.0330    -0.0180 ca         1 GZ4      -0.103500
     23 C19          6.1190    -0.9540     0.8400 ca         1 GZ4      -0.100000
     24 C18          6.5500     0.2940     1.3210 ca         1 GZ4      -0.090000
     25 C17          5.8680     1.4640     0.9440 ca         1 GZ4      -0.100000
     26 C16          4.7570     1.3850     0.0860 ca         1 GZ4      -0.103500
     27 H4           0.1980    -2.6440    -0.8480 hn         1 GZ4       0.487000
     28 H5          -2.9750    -4.6170     0.5110 hn         1 GZ4       0.382500
     29 H6           0.2210     2.4120    -0.8950 ha         1 GZ4       0.144000
     30 H8          -1.3110     5.4710    -1.1680 hc         1 GZ4       0.072700
     31 H7          -0.7110     5.4130     0.4990 hc         1 GZ4       0.072700
     32 H9           0.2480     4.7250    -0.8130 hc         1 GZ4       0.072700
     33 H10          0.6160    -0.9970    -2.0860 h1         1 GZ4       0.089200
     34 H11          0.5330     0.7390    -2.1460 h1         1 GZ4       0.089200
     35 H12          1.7150     0.8430     0.1230 hc         1 GZ4       0.066700
     36 H13          1.8210    -0.9110     0.1210 hc         1 GZ4       0.066700
     37 H15          3.2010    -0.8220    -1.9820 hc         1 GZ4       0.054700
     38 H14          3.0870     0.9290    -1.9850 hc         1 GZ4       0.054700
     39 H3          -4.4150     2.1430     0.8360 ha         1 GZ4       0.167000
     40 H2          -3.0860     5.2980     1.3780 hc         1 GZ4       0.068367
     41 H1          -3.6820     5.3720    -0.2910 hc         1 GZ4       0.068367
     42 H           -4.5970     4.4990     0.9400 hc         1 GZ4       0.068367
     43 H20          4.6800    -2.0040    -0.3830 ha         1 GZ4       0.107000
     44 H19          6.6450    -1.8600     1.1330 ha         1 GZ4       0.124000
     45 H18          7.4100     0.3550     1.9850 ha         1 GZ4       0.127000
     46 H17          6.2000     2.4310     1.3160 ha         1 GZ4       0.124000
     47 H16          4.2340     2.2950    -0.2000 ha         1 GZ4       0.107000
     48 C12          0.5450    -0.1070    -1.4480 c3         1 GZ4       0.021600
@<TRIPOS>BOND
     1     1     2 1   
     2     1     5 1   
     3     1    16 2   
     4     2     4 2   
     5     2    11 1   
     6     3     4 1   
     7     3     7 1   
     8     3    17 2   
     9     4    27 1   
    10     5     7 1   
    11     5    15 2   
    12     6     8 ar  
    13     6    11 1   
    14     6    18 ar  
    15     7    28 1   
    16     8     9 ar  
    17     8    29 1   
    18     9    10 1   
    19     9    20 ar  
    20    10    30 1   
    21    10    31 1   
    22    10    32 1   
    23    11    48 1   
    24    12    13 1   
    25    12    35 1   
    26    12    36 1   
    27    12    48 1   
    28    13    14 1   
    29    13    37 1   
    30    13    38 1   
    31    14    22 ar  
    32    14    26 ar  
    33    16    18 1   
    34    18    19 ar  
    35    19    20 ar  
    36    19    39 1   
    37    20    21 1   
    38    21    40 1   
    39    21    41 1   
    40    21    42 1   
    41    22    23 ar  
    42    22    43 1   
    43    23    24 ar  
    44    23    44 1   
    45    24    25 ar  
    46    24    45 1   
    47    25    26 ar  
    48    25    46 1   
    49    26    47 1   
    50    33    48 1   
    51    34    48 1   
@<TRIPOS>SUBSTRUCTURE
     1 GZ4         1 TEMP              0 ****  ****    0 ROOT
