@<TRIPOS>MOLECULE
GZ4
   48    51     1     0     0
SMALL
bcc


@<TRIPOS>ATOM
      1 C4          -2.5290    -1.2630     0.2710 cc         1 GZ4       0.278800
      2 C5          -1.2710    -1.2660    -0.3850 cc         1 GZ4       0.148400
      3 C6          -1.1740    -3.6820    -0.2750 c          1 GZ4       0.842500
      4 N1          -0.6560    -2.4370    -0.6180 ns         1 GZ4      -0.465500
      5 C7          -3.1550    -2.5540     0.6470 c          1 GZ4       0.635000
      6 C8          -1.3580     1.0790    -0.4210 ca         1 GZ4      -0.040600
      7 N2          -2.4010    -3.6570     0.3330 ns         1 GZ4      -0.600500
      8 C9          -0.8120     2.3320    -0.6970 ca         1 GZ4      -0.174000
      9 C10         -1.4890     3.4850    -0.3510 ca         1 GZ4       0.038700
     10 C11         -0.8780     4.8140    -0.6510 c3         1 GZ4      -0.076800
     11 N3          -0.7330    -0.1060    -0.7570 na         1 GZ4      -0.020100
     12 C13          1.7350    -0.0390    -0.5270 c3         1 GZ4      -0.102400
     13 C14          3.0480     0.0610    -1.3020 c3         1 GZ4      -0.020100
     14 C15          4.2250     0.1060    -0.3680 ca         1 GZ4      -0.109300
     15 O1          -4.2290    -2.6300     1.1830 o          1 GZ4      -0.479500
     16 N           -3.1640    -0.1710     0.5540 nd         1 GZ4      -0.467000
     17 O           -0.5660    -4.6910    -0.5070 o          1 GZ4      -0.527500
     18 C3          -2.6080     1.0040     0.2380 ca         1 GZ4       0.327600
     19 C2          -3.2860     2.1910     0.5780 ca         1 GZ4      -0.100300
     20 C1          -2.7570     3.4200     0.2940 ca         1 GZ4      -0.058300
     21 C           -3.4890     4.6750     0.6510 c3         1 GZ4      -0.062800
     22 C20          4.9210    -1.0540    -0.0390 ca         1 GZ4      -0.121500
     23 C19          5.9850    -1.0160     0.8530 ca         1 GZ4      -0.118000
     24 C18          6.3650     0.1870     1.4330 ca         1 GZ4      -0.108000
     25 C17          5.6770     1.3500     1.1130 ca         1 GZ4      -0.118000
     26 C16          4.6150     1.3080     0.2190 ca         1 GZ4      -0.121500
     27 H4           0.2540    -2.4790    -1.0600 hn         1 GZ4       0.373500
     28 H5          -2.7890    -4.5640     0.5700 hn         1 GZ4       0.382500
     29 H6           0.1530     2.4350    -1.1680 ha         1 GZ4       0.162000
     30 H8          -1.5580     5.4320    -1.2390 hc         1 GZ4       0.072700
     31 H7          -0.6710     5.3610     0.2710 hc         1 GZ4       0.072700
     32 H9           0.0550     4.7130    -1.2000 hc         1 GZ4       0.072700
     33 H10          0.5880    -0.9310    -2.1570 h1         1 GZ4       0.089200
     34 H11          0.5320     0.7880    -2.1410 h1         1 GZ4       0.089200
     35 H12          1.6370     0.8120     0.1510 hc         1 GZ4       0.066700
     36 H13          1.7450    -0.9340     0.1000 hc         1 GZ4       0.066700
     37 H15          3.1390    -0.7930    -1.9780 hc         1 GZ4       0.054700
     38 H14          3.0330     0.9580    -1.9270 hc         1 GZ4       0.054700
     39 H3          -4.2410     2.0940     1.0780 ha         1 GZ4       0.185000
     40 H2          -2.8710     5.3380     1.2570 hc         1 GZ4       0.068367
     41 H1          -3.7720     5.2310    -0.2450 hc         1 GZ4       0.068367
     42 H           -4.3960     4.4530     1.2090 hc         1 GZ4       0.068367
     43 H20          4.6310    -1.9970    -0.4890 ha         1 GZ4       0.125000
     44 H19          6.5180    -1.9270     1.0930 ha         1 GZ4       0.142000
     45 H18          7.1950     0.2180     2.1270 ha         1 GZ4       0.145000
     46 H17          5.9680     2.2930     1.5580 ha         1 GZ4       0.142000
     47 H16          4.0860     2.2210    -0.0280 ha         1 GZ4       0.125000
     48 C12          0.5500    -0.0760    -1.4830 c3         1 GZ4      -0.007700
@<TRIPOS>BOND
     1     1     2 1   
     2     1     5 1   
     3     1    16 2   
     4     2     4 2   
     5     2    11 1   
     6     3     4 1   
     7     3     7 1   
     8     3    17 2   
     9     4    27 1   
    10     5     7 1   
    11     5    15 2   
    12     6     8 ar  
    13     6    11 1   
    14     6    18 ar  
    15     7    28 1   
    16     8     9 ar  
    17     8    29 1   
    18     9    10 1   
    19     9    20 ar  
    20    10    30 1   
    21    10    31 1   
    22    10    32 1   
    23    11    48 1   
    24    12    13 1   
    25    12    35 1   
    26    12    36 1   
    27    12    48 1   
    28    13    14 1   
    29    13    37 1   
    30    13    38 1   
    31    14    22 ar  
    32    14    26 ar  
    33    16    18 1   
    34    18    19 ar  
    35    19    20 ar  
    36    19    39 1   
    37    20    21 1   
    38    21    40 1   
    39    21    41 1   
    40    21    42 1   
    41    22    23 ar  
    42    22    43 1   
    43    23    24 ar  
    44    23    44 1   
    45    24    25 ar  
    46    24    45 1   
    47    25    26 ar  
    48    25    46 1   
    49    26    47 1   
    50    33    48 1   
    51    34    48 1   
@<TRIPOS>SUBSTRUCTURE
     1 GZ4         1 TEMP              0 ****  ****    0 ROOT
