@<TRIPOS>MOLECULE
GZ5
   73    77     1     0     0
SMALL
No Charge or Current Charge


@<TRIPOS>ATOM
      1 C02         -7.6350     2.6630     1.5250 ca         1 GZ5       0.125000
      2 C03         -6.4900     2.9380     0.7680 ca         1 GZ5      -0.106000
      3 C04         -5.7450     1.8820     0.2180 ca         1 GZ5      -0.089000
      4 C05         -6.1470     0.5380     0.4250 ca         1 GZ5      -0.117000
      5 C06         -7.3060     0.2660     1.1940 ca         1 GZ5       0.292000
      6 C08         -7.0380    -2.0250     0.9010 ca         1 GZ5       0.393300
      7 C09         -7.6280    -3.4020     1.2150 c6         1 GZ5      -0.133700
      8 C10         -7.1270    -4.5130     0.2660 c6         1 GZ5      -0.074400
      9 C11         -5.5940    -4.4410     0.1320 c6         1 GZ5      -0.078400
     10 C12         -5.1560    -3.0910    -0.4800 c6         1 GZ5      -0.019100
     11 C13         -5.8660    -1.8640     0.1330 ca         1 GZ5      -0.124300
     12 C14         -5.4160    -0.5490    -0.1090 ca         1 GZ5       0.290000
     13 C16         -2.9070    -0.3700    -0.3480 c3         1 GZ5       0.179800
     14 C17         -1.8740    -0.2070    -1.4790 c3         1 GZ5      -0.082400
     15 C18         -0.4160    -0.2560    -0.9700 c3         1 GZ5      -0.073400
     16 C19          0.6250    -0.0950    -2.1000 c3         1 GZ5      -0.073400
     17 C20          2.0810    -0.1440    -1.5910 c3         1 GZ5      -0.095400
     18 C21          3.1180     0.0190    -2.7220 c3         1 GZ5       0.095000
     19 C23          5.1830    -1.1530    -1.8690 c          1 GZ5       0.554100
     20 C24          6.6330    -0.9210    -1.3160 c3         1 GZ5       0.090500
     21 C26          6.6890    -1.2990     0.1890 c3         1 GZ5       0.013800
     22 C27          7.9010    -0.7660     0.9140 cc         1 GZ5      -0.136400
     23 C28          9.0060    -1.4850     1.3620 cd         1 GZ5      -0.132100
     24 C30          9.3510     0.6500     1.9270 ca         1 GZ5      -0.046200
     25 C31          8.1430     0.6000     1.2900 ca         1 GZ5      -0.094800
     26 C32          7.3580     1.7470     1.1000 ca         1 GZ5      -0.069000
     27 C33          7.8550     2.9750     1.5860 ca         1 GZ5      -0.141000
     28 C34          9.1060     3.0300     2.2430 ca         1 GZ5      -0.095000
     29 C35          9.8690     1.8550     2.4200 ca         1 GZ5      -0.125000
     30 C37         -8.0370     1.3380     1.7350 ca         1 GZ5      -0.076000
     31 N07         -7.7320    -0.9920     1.4220 nb         1 GZ5      -0.684000
     32 N15         -4.2720    -0.3220    -0.8890 nu         1 GZ5      -0.918200
     33 N22          4.4930    -0.0080    -2.2160 ns         1 GZ5      -0.501900
     34 N25          7.7190    -1.6150    -2.0970 n8         1 GZ5      -0.980200
     35 N29          9.9210    -0.6080     1.9950 na         1 GZ5      -0.225700
     36 O36          4.7020    -2.2700    -2.0180 o          1 GZ5      -0.613100
     37 Cl          -8.5690     3.9860     2.2140 cl         1 GZ5      -0.199000
     38 H1          -6.1780     3.9670     0.6080 ha         1 GZ5       0.130000
     39 H2          -4.8560     2.1240    -0.3590 ha         1 GZ5       0.110000
     40 H3          -7.3680    -3.6640     2.2490 hc         1 GZ5       0.063700
     41 H4          -8.7250    -3.3610     1.1760 hc         1 GZ5       0.063700
     42 H5          -7.4300    -5.4980     0.6470 hc         1 GZ5       0.046700
     43 H6          -7.5920    -4.3990    -0.7230 hc         1 GZ5       0.046700
     44 H7          -5.1310    -4.5670     1.1200 hc         1 GZ5       0.042700
     45 H8          -5.2290    -5.2690    -0.4920 hc         1 GZ5       0.042700
     46 H9          -4.0680    -3.0050    -0.3790 hc         1 GZ5       0.055700
     47 H10         -5.3580    -3.1050    -1.5600 hc         1 GZ5       0.055700
     48 H11         -2.7310    -1.3250     0.1660 h1         1 GZ5       0.038700
     49 H12         -2.7710     0.4330     0.3890 h1         1 GZ5       0.038700
     50 H13         -2.0230    -1.0030    -2.2190 hc         1 GZ5       0.047700
     51 H14         -2.0450     0.7480    -1.9900 hc         1 GZ5       0.047700
     52 H15         -0.2670     0.5380    -0.2270 hc         1 GZ5       0.040200
     53 H16         -0.2460    -1.2110    -0.4570 hc         1 GZ5       0.040200
     54 H17          0.4760    -0.8880    -2.8430 hc         1 GZ5       0.042200
     55 H18          0.4540     0.8600    -2.6140 hc         1 GZ5       0.042200
     56 H19          2.2330     0.6510    -0.8500 hc         1 GZ5       0.044700
     57 H20          2.2510    -1.0980    -1.0780 hc         1 GZ5       0.044700
     58 H21          2.9900    -0.7840    -3.4610 h1         1 GZ5       0.056700
     59 H22          2.9530     0.9760    -3.2340 h1         1 GZ5       0.056700
     60 H23          6.8240     0.1590    -1.3860 h1         1 GZ5       0.066700
     61 H24          5.7910    -0.9070     0.6820 hc         1 GZ5       0.053200
     62 H25          6.6360    -2.3900     0.2940 hc         1 GZ5       0.053200
     63 H26          9.2060    -2.5500     1.2720 h4         1 GZ5       0.214000
     64 H27          6.3950     1.6950     0.5970 ha         1 GZ5       0.105000
     65 H28          7.2710     3.8840     1.4550 ha         1 GZ5       0.108000
     66 H29          9.4820     3.9800     2.6150 ha         1 GZ5       0.109000
     67 H30         10.8310     1.8870     2.9270 ha         1 GZ5       0.112000
     68 H31         -8.9260     1.1350     2.3240 ha         1 GZ5       0.147000
     69 H32         -4.4080     0.4290    -1.5640 hn         1 GZ5       0.435000
     70 H33          4.9720     0.8760    -2.0830 hn         1 GZ5       0.310500
     71 H34          7.5010    -2.6180    -2.1450 hn         1 GZ5       0.404500
     72 H35          7.6740    -1.3200    -3.0810 hn         1 GZ5       0.404500
     73 H37         10.8130    -0.8530     2.4140 hn         1 GZ5       0.350000
@<TRIPOS>BOND
     1     1     2 ar  
     2     1    30 ar  
     3     1    37 1   
     4     2     3 ar  
     5     2    38 1   
     6     3     4 ar  
     7     3    39 1   
     8     4     5 ar  
     9     4    12 ar  
    10     5    30 ar  
    11     5    31 ar  
    12     6     7 1   
    13     6    11 ar  
    14     6    31 ar  
    15     7     8 1   
    16     7    40 1   
    17     7    41 1   
    18     8     9 1   
    19     8    42 1   
    20     8    43 1   
    21     9    10 1   
    22     9    44 1   
    23     9    45 1   
    24    10    11 1   
    25    10    46 1   
    26    10    47 1   
    27    11    12 ar  
    28    12    32 1   
    29    13    14 1   
    30    13    32 1   
    31    13    48 1   
    32    13    49 1   
    33    14    15 1   
    34    14    50 1   
    35    14    51 1   
    36    15    16 1   
    37    15    52 1   
    38    15    53 1   
    39    16    17 1   
    40    16    54 1   
    41    16    55 1   
    42    17    18 1   
    43    17    56 1   
    44    17    57 1   
    45    18    33 1   
    46    18    58 1   
    47    18    59 1   
    48    19    20 1   
    49    19    33 1   
    50    19    36 2   
    51    20    21 1   
    52    20    34 1   
    53    20    60 1   
    54    21    22 1   
    55    21    61 1   
    56    21    62 1   
    57    22    23 2   
    58    22    25 1   
    59    23    35 1   
    60    23    63 1   
    61    24    25 ar  
    62    24    29 ar  
    63    24    35 1   
    64    25    26 ar  
    65    26    27 ar  
    66    26    64 1   
    67    27    28 ar  
    68    27    65 1   
    69    28    29 ar  
    70    28    66 1   
    71    29    67 1   
    72    30    68 1   
    73    32    69 1   
    74    33    70 1   
    75    34    71 1   
    76    34    72 1   
    77    35    73 1   
@<TRIPOS>SUBSTRUCTURE
     1 GZ5         1 TEMP              0 ****  ****    0 ROOT
