@<TRIPOS>MOLECULE
GZ5
   73    77     1     0     0
SMALL
bcc


@<TRIPOS>ATOM
      1 C02         -8.2600     2.5200     0.3190 ca         1 GZ5       0.033400
      2 C03         -7.1680     2.7740    -0.5320 ca         1 GZ5      -0.124000
      3 C04         -6.2400     1.7910    -0.7390 ca         1 GZ5      -0.107000
      4 C05         -6.3600     0.5260    -0.1200 ca         1 GZ5      -0.182300
      5 C06         -7.4540     0.2980     0.7480 ca         1 GZ5       0.422600
      6 C08         -6.7560    -1.8300     1.2300 ca         1 GZ5       0.458600
      7 C09         -7.0090    -3.0850     2.0240 c6         1 GZ5      -0.133700
      8 C10         -6.3610    -4.3260     1.4310 c6         1 GZ5      -0.074400
      9 C11         -4.9010    -4.0410     1.1260 c6         1 GZ5      -0.078400
     10 C12         -4.7710    -2.9390     0.0850 c6         1 GZ5      -0.019100
     11 C13         -5.6370    -1.7330     0.3620 ca         1 GZ5      -0.189600
     12 C14         -5.4340    -0.5400    -0.3110 ca         1 GZ5       0.151600
     13 C16         -3.0390    -0.1690    -0.5790 c3         1 GZ5       0.179800
     14 C17         -1.9440    -0.2400    -1.6280 c3         1 GZ5      -0.082400
     15 C18         -0.5560    -0.0410    -1.0330 c3         1 GZ5      -0.073400
     16 C19          0.5420    -0.0560    -2.0890 c3         1 GZ5      -0.073400
     17 C20          1.9420     0.0660    -1.5010 c3         1 GZ5      -0.095400
     18 C21          3.0030     0.0880    -2.5920 c3         1 GZ5       0.095000
     19 C23          5.3450    -0.6570    -2.3300 c          1 GZ5       0.621100
     20 C24          6.6680    -0.3530    -1.6290 c3         1 GZ5       0.090500
     21 C26          6.8250    -1.3350    -0.4550 c3         1 GZ5       0.013800
     22 C27          7.9820    -1.0020     0.4210 cc         1 GZ5      -0.136400
     23 C28          9.2270    -1.5610     0.4080 cd         1 GZ5      -0.082100
     24 C30          9.3180     0.0110     1.9840 ca         1 GZ5      -0.046200
     25 C31          8.0180     0.0160     1.4290 ca         1 GZ5      -0.094800
     26 C32          7.0740     0.9280     1.9160 ca         1 GZ5      -0.087000
     27 C33          7.4400     1.7950     2.9280 ca         1 GZ5      -0.159000
     28 C34          8.7380     1.7720     3.4660 ca         1 GZ5      -0.113000
     29 C35          9.6910     0.8840     3.0050 ca         1 GZ5      -0.143000
     30 C37         -8.4110     1.3200     0.9510 ca         1 GZ5      -0.159300
     31 N07         -7.6250    -0.8630     1.4090 nb         1 GZ5      -0.684000
     32 N15         -4.3510    -0.4040    -1.1830 nu         1 GZ5      -0.724600
     33 N22          4.3450     0.1970    -2.0650 ns         1 GZ5      -0.568900
     34 N25          7.8100    -0.4420    -2.5120 n8         1 GZ5      -0.869800
     35 N29         10.0270    -0.9600     1.3410 na         1 GZ5      -0.175400
     36 O36          5.2310    -1.6340    -3.0610 o          1 GZ5      -0.613100
     37 CL          -9.4270     3.7770     0.5640 cl         1 GZ5      -0.107400
     38 H1          -7.0630     3.7380    -1.0100 ha         1 GZ5       0.148000
     39 H2          -5.4060     2.0130    -1.3910 ha         1 GZ5       0.128000
     40 H3          -6.6150    -2.9240     3.0340 hc         1 GZ5       0.063700
     41 H4          -8.0870    -3.2120     2.1370 hc         1 GZ5       0.063700
     42 H5          -6.4590    -5.1590     2.1290 hc         1 GZ5       0.046700
     43 H6          -6.8810    -4.6190     0.5140 hc         1 GZ5       0.046700
     44 H7          -4.3890    -3.7440     2.0460 hc         1 GZ5       0.042700
     45 H8          -4.3940    -4.9380     0.7630 hc         1 GZ5       0.042700
     46 H9          -3.7230    -2.6610    -0.0130 hc         1 GZ5       0.055700
     47 H10         -5.0580    -3.3310    -0.8980 hc         1 GZ5       0.055700
     48 H11         -2.8590    -0.9210     0.1900 h1         1 GZ5       0.038700
     49 H12         -3.0060     0.8040    -0.0690 h1         1 GZ5       0.038700
     50 H13         -1.9950    -1.2100    -2.1320 hc         1 GZ5       0.047700
     51 H14         -2.1260     0.5210    -2.3950 hc         1 GZ5       0.047700
     52 H15         -0.5210     0.9070    -0.4850 hc         1 GZ5       0.040200
     53 H16         -0.3640    -0.8270    -0.2950 hc         1 GZ5       0.040200
     54 H17          0.4740    -0.9810    -2.6710 hc         1 GZ5       0.042200
     55 H18          0.3730     0.7610    -2.7990 hc         1 GZ5       0.042200
     56 H19          2.0120     0.9780    -0.8990 hc         1 GZ5       0.044700
     57 H20          2.1340    -0.7710    -0.8230 hc         1 GZ5       0.044700
     58 H21          2.9490    -0.8240    -3.1860 h1         1 GZ5       0.056700
     59 H22          2.8140     0.9220    -3.2750 h1         1 GZ5       0.056700
     60 H23          6.6400     0.6640    -1.2230 h1         1 GZ5       0.066700
     61 H24          5.9020    -1.3330     0.1340 hc         1 GZ5       0.053200
     62 H25          6.9310    -2.3460    -0.8580 hc         1 GZ5       0.053200
     63 H26          9.6130    -2.3590    -0.2070 h4         1 GZ5       0.164000
     64 H27          6.0690     0.9530     1.5110 ha         1 GZ5       0.123000
     65 H28          6.7200     2.5040     3.3150 ha         1 GZ5       0.126000
     66 H29          8.9950     2.4630     4.2580 ha         1 GZ5       0.127000
     67 H30         10.6910     0.8680     3.4210 ha         1 GZ5       0.130000
     68 H31         -9.2450     1.1260     1.6110 ha         1 GZ5       0.165000
     69 H32         -4.5240     0.3000    -1.8870 hn         1 GZ5       0.379800
     70 H33          4.5460     0.9930    -1.4800 hn         1 GZ5       0.310500
     71 H34          7.8040    -1.3390    -2.9820 hn         1 GZ5       0.349300
     72 H35          7.7400     0.2590    -3.2390 hn         1 GZ5       0.349300
     73 H37         10.9850    -1.2060     1.5250 hn         1 GZ5       0.299700
@<TRIPOS>BOND
     1     1     2 ar  
     2     1    30 ar  
     3     1    37 1   
     4     2     3 ar  
     5     2    38 1   
     6     3     4 ar  
     7     3    39 1   
     8     4     5 ar  
     9     4    12 ar  
    10     5    30 ar  
    11     5    31 ar  
    12     6     7 1   
    13     6    11 ar  
    14     6    31 ar  
    15     7     8 1   
    16     7    40 1   
    17     7    41 1   
    18     8     9 1   
    19     8    42 1   
    20     8    43 1   
    21     9    10 1   
    22     9    44 1   
    23     9    45 1   
    24    10    11 1   
    25    10    46 1   
    26    10    47 1   
    27    11    12 ar  
    28    12    32 1   
    29    13    14 1   
    30    13    32 1   
    31    13    48 1   
    32    13    49 1   
    33    14    15 1   
    34    14    50 1   
    35    14    51 1   
    36    15    16 1   
    37    15    52 1   
    38    15    53 1   
    39    16    17 1   
    40    16    54 1   
    41    16    55 1   
    42    17    18 1   
    43    17    56 1   
    44    17    57 1   
    45    18    33 1   
    46    18    58 1   
    47    18    59 1   
    48    19    20 1   
    49    19    33 1   
    50    19    36 2   
    51    20    21 1   
    52    20    34 1   
    53    20    60 1   
    54    21    22 1   
    55    21    61 1   
    56    21    62 1   
    57    22    23 2   
    58    22    25 1   
    59    23    35 1   
    60    23    63 1   
    61    24    25 ar  
    62    24    29 ar  
    63    24    35 1   
    64    25    26 ar  
    65    26    27 ar  
    66    26    64 1   
    67    27    28 ar  
    68    27    65 1   
    69    28    29 ar  
    70    28    66 1   
    71    29    67 1   
    72    30    68 1   
    73    32    69 1   
    74    33    70 1   
    75    34    71 1   
    76    34    72 1   
    77    35    73 1   
@<TRIPOS>SUBSTRUCTURE
     1 GZ5         1 TEMP              0 ****  ****    0 ROOT
