@<TRIPOS>MOLECULE
GZ6
   10     9     1     0     0
SMALL
abcg2


@<TRIPOS>ATOM
      1 C           17.5490    33.9030    47.2150 cz         1 GZ6       0.946600
      2 N1          18.2810    33.6480    46.1400 nv         1 GZ6      -1.028667
      3 N2          17.8510    34.9310    47.9930 nv         1 GZ6      -0.607467
      4 N3          16.5150    33.1300    47.5110 nv         1 GZ6      -0.607467
      5 H1          19.0120    34.2730    45.8480 hn         1 GZ6       0.382833
      6 H2          17.3030    35.1510    48.8070 hn         1 GZ6       0.382833
      7 H3          18.6510    35.5110    47.8060 hn         1 GZ6       0.382833
      8 H4          16.0070    33.2460    48.3720 hn         1 GZ6       0.382833
      9 H5          16.2780    32.3350    46.9430 hn         1 GZ6       0.382833
     10 H6          18.0450    32.8940    45.5170 hn         1 GZ6       0.382833
@<TRIPOS>BOND
     1     1     2 2   
     2     1     3 1   
     3     1     4 1   
     4     2     5 1   
     5     2    10 1   
     6     3     6 1   
     7     3     7 1   
     8     4     8 1   
     9     4     9 1   
@<TRIPOS>SUBSTRUCTURE
     1 GZ6         1 TEMP              0 ****  ****    0 ROOT
