@<TRIPOS>MOLECULE
GZ6
   10     9     1     0     0
SMALL
No Charge or Current Charge


@<TRIPOS>ATOM
      1 C           17.5400    33.9050    47.2290 cz         1 GZ6       0.946600
      2 N1          18.2370    33.6750    46.1580 nv         1 GZ6      -1.028667
      3 N2          17.8550    34.9120    47.9800 nv         1 GZ6      -0.607467
      4 N3          16.5500    33.1220    47.5160 nv         1 GZ6      -0.607467
      5 H1          19.0180    34.2600    45.8960 hn         1 GZ6       0.382833
      6 H2          17.3460    35.1310    48.8190 hn         1 GZ6       0.382833
      7 H3          18.6260    35.5150    47.7490 hn         1 GZ6       0.382833
      8 H4          15.9810    33.2600    48.3340 hn         1 GZ6       0.382833
      9 H5          16.3120    32.3420    46.9270 hn         1 GZ6       0.382833
     10 H6          18.0260    32.9000    45.5430 hn         1 GZ6       0.382833
@<TRIPOS>BOND
     1     1     2 2   
     2     1     3 1   
     3     1     4 1   
     4     2     5 1   
     5     2    10 1   
     6     3     6 1   
     7     3     7 1   
     8     4     8 1   
     9     4     9 1   
@<TRIPOS>SUBSTRUCTURE
     1 GZ6         1 TEMP              0 ****  ****    0 ROOT
