@<TRIPOS>MOLECULE
GZ9
   78    81     1     0     0
SMALL
No Charge or Current Charge


@<TRIPOS>ATOM
      1 C1          28.5530   -14.9240    16.5700 c3         1 GZ9      -0.138400
      2 C2          27.0670   -14.6880    16.7960 ca         1 GZ9       0.382300
      3 C3          25.3590   -13.1350    16.7080 ca         1 GZ9       0.490900
      4 C5          28.0410    -9.6780    16.0450 c6         1 GZ9       0.131700
      5 C6          29.4200   -10.2740    15.6590 c6         1 GZ9      -0.091900
      6 N1          26.6540   -13.4400    16.5170 nb         1 GZ9      -0.791000
      7 N2          24.9930   -11.8150    16.3590 ns         1 GZ9      -0.345900
      8 N3          27.0690   -10.7570    16.2230 ns         1 GZ9      -0.516900
      9 O1          25.1490    -9.6150    15.8480 o          1 GZ9      -0.675100
     10 C7          30.4910    -9.1660    15.4980 c6         1 GZ9      -0.071400
     11 C8          30.6110    -8.3150    16.7850 c6         1 GZ9      -0.075400
     12 C9          29.2390    -7.7270    17.1960 c6         1 GZ9      -0.071400
     13 C10         28.1750    -8.8430    17.3460 c6         1 GZ9      -0.091900
     14 C11         24.3950   -14.0640    17.1620 ca         1 GZ9      -0.137300
     15 C12         22.9390   -13.6070    17.3500 c3         1 GZ9      -0.040800
     16 C13         24.8150   -15.4020    17.4220 ca         1 GZ9       0.053700
     17 C14         23.8120   -16.5020    17.8540 c3         1 GZ9       0.042600
     18 O2          22.6210   -16.5190    16.9900 os         1 GZ9      -0.429000
     19 C16         23.5920   -16.3950    14.7230 c3         1 GZ9      -0.101433
     20 C17         21.1840   -17.0210    15.1740 c3         1 GZ9      -0.101433
     21 C18         23.0110   -18.6500    15.8330 c3         1 GZ9      -0.101433
     22 C19         23.4350   -16.3560    19.3730 c          1 GZ9       0.735000
     23 O3          24.3400   -16.2280    20.1860 o          1 GZ9      -0.703000
     24 O4          22.2560   -16.3830    19.7080 o          1 GZ9      -0.703000
     25 C20         26.2010   -15.7090    17.2600 cp         1 GZ9      -0.113000
     26 C21         26.7720   -17.0560    17.5850 cp         1 GZ9      -0.033000
     27 C22         26.7290   -18.0760    16.6090 ca         1 GZ9      -0.077000
     28 C23         27.2500   -19.3490    16.8680 ca         1 GZ9      -0.159000
     29 C24         27.8420   -19.6260    18.1040 ca         1 GZ9       0.131100
     30 C28         27.9560   -18.6120    19.0870 ca         1 GZ9      -0.163300
     31 C29         27.4120   -17.3230    18.8330 ca         1 GZ9       0.006700
     32 C30         27.5450   -16.2300    19.9000 c3         1 GZ9      -0.052800
     33 O5          28.3360   -20.8980    18.3100 os         1 GZ9      -0.355100
     34 C25         28.6740   -21.3180    19.6460 c6         1 GZ9       0.163600
     35 C26         29.4910   -20.2260    20.3530 c6         1 GZ9      -0.114400
     36 C27         28.6670   -18.9250    20.4180 c6         1 GZ9      -0.021100
     37 H1          29.0370   -14.0710    16.0780 hc         1 GZ9       0.042033
     38 H2          29.0700   -15.0930    17.5210 hc         1 GZ9       0.042033
     39 H3          28.7170   -15.8030    15.9360 hc         1 GZ9       0.042033
     40 H4          27.6940    -9.0240    15.2300 h1         1 GZ9       0.069700
     41 H5          29.3310   -10.8380    14.7210 hc         1 GZ9       0.047450
     42 H6          29.7460   -10.9920    16.4250 hc         1 GZ9       0.047450
     43 H7          23.9940   -11.6880    16.2900 hn         1 GZ9       0.172000
     44 H8          27.4030   -11.6990    16.4140 hn         1 GZ9       0.364500
     45 H9          31.4630    -9.6190    15.2580 hc         1 GZ9       0.035950
     46 H10         30.2290    -8.5190    14.6490 hc         1 GZ9       0.035950
     47 H11         31.0080    -8.9340    17.6020 hc         1 GZ9       0.033700
     48 H12         31.3340    -7.5030    16.6300 hc         1 GZ9       0.033700
     49 H13         29.3380    -7.1760    18.1410 hc         1 GZ9       0.035950
     50 H14         28.9080    -6.9990    16.4430 hc         1 GZ9       0.035950
     51 H15         27.2070    -8.3930    17.6030 hc         1 GZ9       0.047450
     52 H16         28.4460    -9.5000    18.1850 hc         1 GZ9       0.047450
     53 H17         22.3610   -13.7500    16.4290 hc         1 GZ9       0.049700
     54 H18         22.4280   -14.1480    18.1510 hc         1 GZ9       0.049700
     55 H19         22.8670   -12.5480    17.6240 hc         1 GZ9       0.049700
     56 H20         24.3070   -17.4760    17.8050 h1         1 GZ9       0.041700
     57 H21         24.6400   -16.5190    15.0060 hc         1 GZ9       0.032922
     58 H22         23.4850   -16.7770    13.7010 hc         1 GZ9       0.032922
     59 H23         23.3620   -15.3240    14.7050 hc         1 GZ9       0.032922
     60 H24         20.4860   -17.5250    15.8540 hc         1 GZ9       0.032922
     61 H25         20.8890   -15.9680    15.1010 hc         1 GZ9       0.032922
     62 H26         21.0750   -17.4730    14.1810 hc         1 GZ9       0.032922
     63 H27         22.4200   -19.1210    16.6280 hc         1 GZ9       0.032922
     64 H28         22.8110   -19.1900    14.9000 hc         1 GZ9       0.032922
     65 H29         24.0720   -18.7850    16.0640 hc         1 GZ9       0.032922
     66 H31         26.2890   -17.8770    15.6370 ha         1 GZ9       0.112000
     67 H32         27.1930   -20.1240    16.1090 ha         1 GZ9       0.115000
     68 H33         27.2080   -16.5880    20.8790 hc         1 GZ9       0.052033
     69 H34         28.5870   -15.9070    20.0000 hc         1 GZ9       0.052033
     70 H35         26.9540   -15.3360    19.6760 hc         1 GZ9       0.052033
     71 H36         27.7460   -21.5100    20.2030 h1         1 GZ9       0.046700
     72 H37         29.2450   -22.2560    19.5940 h1         1 GZ9       0.046700
     73 H38         29.7710   -20.5510    21.3640 hc         1 GZ9       0.045200
     74 H39         30.4250   -20.0530    19.8010 hc         1 GZ9       0.045200
     75 H40         29.3360   -18.1040    20.7090 hc         1 GZ9       0.052700
     76 H41         27.9150   -19.0130    21.2130 hc         1 GZ9       0.052700
     77 C15         22.6380   -17.1520    15.6820 c3         1 GZ9       0.188000
     78 C4          25.7100   -10.6630    16.1230 c          1 GZ9       0.663100
@<TRIPOS>BOND
     1     1     2 1   
     2     1    37 1   
     3     1    38 1   
     4     1    39 1   
     5     2     6 ar  
     6     2    25 ar  
     7     3     6 ar  
     8     3     7 1   
     9     3    14 ar  
    10     4     5 1   
    11     4     8 1   
    12     4    13 1   
    13     4    40 1   
    14     5    10 1   
    15     5    41 1   
    16     5    42 1   
    17     7    43 1   
    18     7    78 1   
    19     8    44 1   
    20     8    78 1   
    21     9    78 2   
    22    10    11 1   
    23    10    45 1   
    24    10    46 1   
    25    11    12 1   
    26    11    47 1   
    27    11    48 1   
    28    12    13 1   
    29    12    49 1   
    30    12    50 1   
    31    13    51 1   
    32    13    52 1   
    33    14    15 1   
    34    14    16 ar  
    35    15    53 1   
    36    15    54 1   
    37    15    55 1   
    38    16    17 1   
    39    16    25 ar  
    40    17    18 1   
    41    17    22 1   
    42    17    56 1   
    43    18    77 1   
    44    19    57 1   
    45    19    58 1   
    46    19    59 1   
    47    19    77 1   
    48    20    60 1   
    49    20    61 1   
    50    20    62 1   
    51    20    77 1   
    52    21    63 1   
    53    21    64 1   
    54    21    65 1   
    55    21    77 1   
    56    22    23 1   
    57    22    24 1   
    58    25    26 1   
    59    26    27 ar  
    60    26    31 ar  
    61    27    28 ar  
    62    27    66 1   
    63    28    29 ar  
    64    28    67 1   
    65    29    30 ar  
    66    29    33 1   
    67    30    31 ar  
    68    30    36 1   
    69    31    32 1   
    70    32    68 1   
    71    32    69 1   
    72    32    70 1   
    73    33    34 1   
    74    34    35 1   
    75    34    71 1   
    76    34    72 1   
    77    35    36 1   
    78    35    73 1   
    79    35    74 1   
    80    36    75 1   
    81    36    76 1   
@<TRIPOS>SUBSTRUCTURE
     1 GZ9         1 TEMP              0 ****  ****    0 ROOT
