@<TRIPOS>MOLECULE
GZ9
   78    81     1     0     0
SMALL
abcg2


@<TRIPOS>ATOM
      1 C1          28.5780   -14.8350    17.2910 c3         1 GZ9      -0.138400
      2 C2          27.0930   -14.6210    17.3380 ca         1 GZ9       0.382300
      3 C3          25.3840   -13.0950    17.2090 ca         1 GZ9       0.490900
      4 C5          27.8940    -9.6810    16.1130 c6         1 GZ9       0.131700
      5 C6          28.9420   -10.1850    15.1250 c6         1 GZ9      -0.091900
      6 N1          26.6760   -13.3730    17.1460 nb         1 GZ9      -0.791000
      7 N2          24.9910   -11.7780    17.0220 ns         1 GZ9      -0.345900
      8 N3          27.0250   -10.7720    16.4970 ns         1 GZ9      -0.516900
      9 O1          25.0890    -9.5840    16.5480 o          1 GZ9      -0.675100
     10 C7          29.8860    -9.0650    14.7000 c6         1 GZ9      -0.071400
     11 C8          30.5490    -8.4090    15.9060 c6         1 GZ9      -0.075400
     12 C9          29.5050    -7.9070    16.8960 c6         1 GZ9      -0.071400
     13 C10         28.5620    -9.0280    17.3230 c6         1 GZ9      -0.091900
     14 C11         24.3990   -14.0680    17.4520 ca         1 GZ9      -0.137300
     15 C12         22.9620   -13.6390    17.5710 c3         1 GZ9      -0.040800
     16 C13         24.8300   -15.3850    17.5940 ca         1 GZ9       0.053700
     17 C14         23.8180   -16.5060    17.7330 c3         1 GZ9       0.042600
     18 O2          22.8000   -16.4400    16.7700 os         1 GZ9      -0.429000
     19 C16         23.9790   -16.2390    14.6340 c3         1 GZ9      -0.101433
     20 C17         21.5810   -16.8720    14.8400 c3         1 GZ9      -0.101433
     21 C18         23.3350   -18.4890    15.5500 c3         1 GZ9      -0.101433
     22 C19         23.1890   -16.5200    19.1630 c          1 GZ9       0.735000
     23 O3          23.9590   -16.1780    20.0780 o          1 GZ9      -0.703000
     24 O4          22.0140   -16.9050    19.2600 o          1 GZ9      -0.703000
     25 C20         26.2080   -15.6680    17.5700 cp         1 GZ9      -0.113000
     26 C21         26.7670   -17.0290    17.8000 cp         1 GZ9      -0.033000
     27 C22         26.8850   -17.9190    16.7330 ca         1 GZ9      -0.077000
     28 C23         27.4230   -19.1800    16.8970 ca         1 GZ9      -0.159000
     29 C24         27.8850   -19.5690    18.1510 ca         1 GZ9       0.131100
     30 C28         27.8340   -18.6840    19.2290 ca         1 GZ9      -0.163300
     31 C29         27.2590   -17.4150    19.0520 ca         1 GZ9       0.006700
     32 C30         27.2260   -16.4770    20.2250 c3         1 GZ9      -0.052800
     33 O5          28.3900   -20.8210    18.2420 os         1 GZ9      -0.355100
     34 C25         28.5900   -21.3400    19.5490 c6         1 GZ9       0.163600
     35 C26         29.2840   -20.3310    20.4350 c6         1 GZ9      -0.114400
     36 C27         28.4130   -19.0880    20.5600 c6         1 GZ9      -0.021100
     37 H1          29.0790   -13.9290    16.9550 hc         1 GZ9       0.042033
     38 H2          28.9740   -15.0930    18.2750 hc         1 GZ9       0.042033
     39 H3          28.8470   -15.6510    16.6200 hc         1 GZ9       0.042033
     40 H4          27.2840    -8.9270    15.6090 h1         1 GZ9       0.069700
     41 H5          28.4450   -10.6180    14.2540 hc         1 GZ9       0.047450
     42 H6          29.5210   -10.9900    15.5940 hc         1 GZ9       0.047450
     43 H7          24.0040   -11.5910    17.0920 hn         1 GZ9       0.172000
     44 H8          27.4190   -11.6940    16.6730 hn         1 GZ9       0.364500
     45 H9          30.6410    -9.4570    14.0150 hc         1 GZ9       0.035950
     46 H10         29.3220    -8.3100    14.1430 hc         1 GZ9       0.035950
     47 H11         31.1990    -9.1360    16.4030 hc         1 GZ9       0.033700
     48 H12         31.1920    -7.5860    15.5830 hc         1 GZ9       0.033700
     49 H13         29.9890    -7.4710    17.7730 hc         1 GZ9       0.035950
     50 H14         28.9230    -7.1030    16.4320 hc         1 GZ9       0.035950
     51 H15         27.7970    -8.6460    18.0040 hc         1 GZ9       0.047450
     52 H16         29.1240    -9.7920    17.8710 hc         1 GZ9       0.047450
     53 H17         22.5580   -13.3010    16.6140 hc         1 GZ9       0.049700
     54 H18         22.3100   -14.4300    17.9220 hc         1 GZ9       0.049700
     55 H19         22.8600   -12.8140    18.2800 hc         1 GZ9       0.049700
     56 H20         24.3650   -17.4540    17.6580 h1         1 GZ9       0.041700
     57 H21         24.9890   -16.3020    15.0370 hc         1 GZ9       0.032922
     58 H22         24.0040   -16.6410    13.6200 hc         1 GZ9       0.032922
     59 H23         23.7110   -15.1830    14.5690 hc         1 GZ9       0.032922
     60 H24         20.8300   -17.4210    15.4100 hc         1 GZ9       0.032922
     61 H25         21.2740   -15.8250    14.7900 hc         1 GZ9       0.032922
     62 H26         21.5880   -17.2670    13.8250 hc         1 GZ9       0.032922
     63 H27         22.6370   -19.0360    16.1860 hc         1 GZ9       0.032922
     64 H28         23.2950   -18.9300    14.5530 hc         1 GZ9       0.032922
     65 H29         24.3440   -18.6560    15.9300 hc         1 GZ9       0.032922
     66 H31         26.5460   -17.6200    15.7490 ha         1 GZ9       0.112000
     67 H32         27.4900   -19.8650    16.0610 ha         1 GZ9       0.115000
     68 H33         26.8360   -16.9680    21.1170 hc         1 GZ9       0.052033
     69 H34         28.2310   -16.1250    20.4700 hc         1 GZ9       0.052033
     70 H35         26.6000   -15.6130    20.0280 hc         1 GZ9       0.052033
     71 H36         27.6250   -21.6230    19.9850 h1         1 GZ9       0.046700
     72 H37         29.1810   -22.2470    19.4240 h1         1 GZ9       0.046700
     73 H38         29.4700   -20.7720    21.4150 hc         1 GZ9       0.045200
     74 H39         30.2570   -20.0770    20.0070 hc         1 GZ9       0.045200
     75 H40         28.9990   -18.2670    20.9780 hc         1 GZ9       0.052700
     76 H41         27.6060   -19.2730    21.2780 hc         1 GZ9       0.052700
     77 C15         22.9620   -17.0090    15.4760 c3         1 GZ9       0.188000
     78 C4          25.7060   -10.6360    16.6780 c          1 GZ9       0.663100
@<TRIPOS>BOND
     1     1     2 1   
     2     1    37 1   
     3     1    38 1   
     4     1    39 1   
     5     2     6 ar  
     6     2    25 ar  
     7     3     6 ar  
     8     3     7 1   
     9     3    14 ar  
    10     4     5 1   
    11     4     8 1   
    12     4    13 1   
    13     4    40 1   
    14     5    10 1   
    15     5    41 1   
    16     5    42 1   
    17     7    43 1   
    18     7    78 1   
    19     8    44 1   
    20     8    78 1   
    21     9    78 2   
    22    10    11 1   
    23    10    45 1   
    24    10    46 1   
    25    11    12 1   
    26    11    47 1   
    27    11    48 1   
    28    12    13 1   
    29    12    49 1   
    30    12    50 1   
    31    13    51 1   
    32    13    52 1   
    33    14    15 1   
    34    14    16 ar  
    35    15    53 1   
    36    15    54 1   
    37    15    55 1   
    38    16    17 1   
    39    16    25 ar  
    40    17    18 1   
    41    17    22 1   
    42    17    56 1   
    43    18    77 1   
    44    19    57 1   
    45    19    58 1   
    46    19    59 1   
    47    19    77 1   
    48    20    60 1   
    49    20    61 1   
    50    20    62 1   
    51    20    77 1   
    52    21    63 1   
    53    21    64 1   
    54    21    65 1   
    55    21    77 1   
    56    22    23 1   
    57    22    24 1   
    58    25    26 1   
    59    26    27 ar  
    60    26    31 ar  
    61    27    28 ar  
    62    27    66 1   
    63    28    29 ar  
    64    28    67 1   
    65    29    30 ar  
    66    29    33 1   
    67    30    31 ar  
    68    30    36 1   
    69    31    32 1   
    70    32    68 1   
    71    32    69 1   
    72    32    70 1   
    73    33    34 1   
    74    34    35 1   
    75    34    71 1   
    76    34    72 1   
    77    35    36 1   
    78    35    73 1   
    79    35    74 1   
    80    36    75 1   
    81    36    76 1   
@<TRIPOS>SUBSTRUCTURE
     1 GZ9         1 TEMP              0 ****  ****    0 ROOT
