@<TRIPOS>MOLECULE
GZA
   37    40     1     0     0
SMALL
bcc


@<TRIPOS>ATOM
      1 C01         -3.4270    -0.0460    -1.4300 c3         1 GZA       0.106600
      2 C02         -4.6600    -0.1220    -0.5700 ca         1 GZA      -0.127300
      3 C03         -5.3350     1.0390    -0.2030 ca         1 GZA      -0.102000
      4 C04         -6.4590     0.9720     0.6080 ca         1 GZA      -0.131000
      5 C05         -6.9200    -0.2580     1.0610 ca         1 GZA      -0.111000
      6 C06         -6.2530    -1.4200     0.6980 ca         1 GZA      -0.131000
      7 C07         -5.1270    -1.3500    -0.1140 ca         1 GZA      -0.102000
      8 N08         -2.2530     0.3330    -0.6650 na         1 GZA       0.123400
      9 C09         -1.3890    -0.4960    -0.0530 cc         1 GZA      -0.114300
     10 C10         -0.5320     0.3220     0.6390 cd         1 GZA      -0.093200
     11 C11         -0.9600     1.6300     0.3890 cd         1 GZA       0.328200
     12 N12         -2.0140     1.6120    -0.4050 nc         1 GZA      -0.513800
     13 O13          0.5010    -0.0820     1.4440 os         1 GZA      -0.294700
     14 C14          1.7380    -0.0070     0.9600 cc         1 GZA       0.696200
     15 N15          2.6610    -0.4080     1.8750 ns         1 GZA      -0.497400
     16 C16          4.0180    -0.4220     1.6280 c          1 GZA       0.733100
     17 C17          4.3550     0.0410     0.2800 ca         1 GZA      -0.193600
     18 C18          5.6730     0.1080    -0.1670 ca         1 GZA      -0.168300
     19 C19          5.9050     0.5540    -1.4490 ca         1 GZA       0.366200
     20 N20          4.9240     0.9230    -2.2820 nb         1 GZA      -0.638000
     21 C21          3.6810     0.8610    -1.8630 ca         1 GZA       0.410200
     22 C22          3.3220     0.4250    -0.5770 ca         1 GZA       0.096100
     23 N23          1.9980     0.3960    -0.2220 nd         1 GZA      -0.680100
     24 O24          4.8140    -0.7860     2.4670 o          1 GZA      -0.591500
     25 H01         -3.2200    -1.0070    -1.8990 h1         1 GZA       0.074200
     26 H01A        -3.5460     0.6910    -2.2230 h1         1 GZA       0.074200
     27 H03         -4.9800     2.0010    -0.5530 ha         1 GZA       0.136000
     28 H04         -6.9790     1.8810     0.8820 ha         1 GZA       0.135000
     29 H05         -7.7980    -0.3100     1.6910 ha         1 GZA       0.134000
     30 H06         -6.6090    -2.3820     1.0410 ha         1 GZA       0.135000
     31 H07         -4.6130    -2.2610    -0.3970 ha         1 GZA       0.136000
     32 H09         -1.4360    -1.5690    -0.1500 h4         1 GZA       0.185000
     33 H11         -0.5400     2.5590     0.7420 h4         1 GZA       0.051100
     34 HN15         2.3460    -0.7160     2.7880 hn         1 GZA       0.345500
     35 H18          6.4950    -0.1810     0.4740 ha         1 GZA       0.161000
     36 H19          6.9160     0.6230    -1.8320 h4         1 GZA       0.026100
     37 H21          2.8980     1.1640    -2.5520 h4         1 GZA       0.039100
@<TRIPOS>BOND
     1     1     2 1   
     2     1     8 1   
     3     1    25 1   
     4     1    26 1   
     5     2     3 ar  
     6     2     7 ar  
     7     3     4 ar  
     8     3    27 1   
     9     4     5 ar  
    10     4    28 1   
    11     5     6 ar  
    12     5    29 1   
    13     6     7 ar  
    14     6    30 1   
    15     7    31 1   
    16     8     9 1   
    17     8    12 1   
    18     9    10 2   
    19     9    32 1   
    20    10    11 1   
    21    10    13 1   
    22    11    12 2   
    23    11    33 1   
    24    13    14 1   
    25    14    15 1   
    26    14    23 2   
    27    15    16 1   
    28    15    34 1   
    29    16    17 1   
    30    16    24 2   
    31    17    18 ar  
    32    17    22 ar  
    33    18    19 ar  
    34    18    35 1   
    35    19    20 ar  
    36    19    36 1   
    37    20    21 ar  
    38    21    22 ar  
    39    21    37 1   
    40    22    23 1   
@<TRIPOS>SUBSTRUCTURE
     1 GZA         1 TEMP              0 ****  ****    0 ROOT
