@<TRIPOS>MOLECULE
GZA
   37    40     1     0     0
SMALL
No Charge or Current Charge


@<TRIPOS>ATOM
      1 C01         -3.8720    -0.4370    -1.5290 c3         1 GZA       0.135900
      2 C02         -4.9110    -0.2280    -0.4250 ca         1 GZA      -0.127300
      3 C03         -4.8610     0.9080     0.4100 ca         1 GZA      -0.084000
      4 C04         -5.8220     1.0910     1.4190 ca         1 GZA      -0.113000
      5 C05         -6.8430     0.1430     1.6000 ca         1 GZA      -0.093000
      6 C06         -6.9030    -0.9880     0.7680 ca         1 GZA      -0.113000
      7 C07         -5.9420    -1.1720    -0.2410 ca         1 GZA      -0.084000
      8 N08         -2.4820    -0.1860    -1.1030 na         1 GZA       0.144800
      9 C09         -1.7250    -1.0100    -0.2710 cc         1 GZA      -0.147000
     10 C10         -0.5350    -0.3570    -0.2060 cd         1 GZA      -0.027900
     11 C11         -0.6250     0.8370    -0.9640 cd         1 GZA       0.262900
     12 N12         -1.8130     0.9540    -1.5330 nc         1 GZA      -0.513800
     13 O13          0.5080    -0.8150     0.5730 os         1 GZA      -0.294700
     14 C14          1.8200    -0.4020     0.5110 cc         1 GZA       0.696200
     15 N15          2.6290    -0.7570     1.5420 ns         1 GZA      -0.430400
     16 C16          3.9380    -0.4490     1.6330 c          1 GZA       0.590600
     17 C17          4.4490     0.3260     0.4780 ca         1 GZA      -0.193600
     18 C18          5.7960     0.7430     0.3900 ca         1 GZA      -0.085000
     19 C19          6.2200     1.4730    -0.7340 ca         1 GZA       0.300900
     20 N20          5.3910     1.8020    -1.7510 nb         1 GZA      -0.638000
     21 C21          4.0960     1.3970    -1.6590 ca         1 GZA       0.344900
     22 C22          3.5650     0.6550    -0.5670 ca         1 GZA       0.161400
     23 N23          2.2010     0.2830    -0.5680 nd         1 GZA      -0.680100
     24 O24          4.6220    -0.7880     2.5860 o          1 GZA      -0.516000
     25 H01         -3.9290    -1.4670    -1.9010 h1         1 GZA       0.074200
     26 H01A        -4.1080     0.2270    -2.3690 h1         1 GZA       0.074200
     27 H03         -4.0790     1.6530     0.2780 ha         1 GZA       0.118000
     28 H04         -5.7760     1.9690     2.0600 ha         1 GZA       0.117000
     29 H05         -7.5870     0.2850     2.3810 ha         1 GZA       0.116000
     30 H06         -7.6940    -1.7210     0.9060 ha         1 GZA       0.117000
     31 H07         -6.0010    -2.0520    -0.8790 ha         1 GZA       0.118000
     32 H09         -2.0870    -1.9270     0.1740 h4         1 GZA       0.167000
     33 H11          0.1060     1.6220    -1.1070 h4         1 GZA       0.051100
     34 HN15         2.2330    -1.2870     2.3020 hn         1 GZA       0.345500
     35 H18          6.5100     0.5080     1.1750 ha         1 GZA       0.143000
     36 H19          7.2540     1.8050    -0.8220 h4         1 GZA       0.026100
     37 H21          3.4520     1.6760    -2.4920 h4         1 GZA       0.039100
@<TRIPOS>BOND
     1     1     2 1   
     2     1     8 1   
     3     1    25 1   
     4     1    26 1   
     5     2     3 ar  
     6     2     7 ar  
     7     3     4 ar  
     8     3    27 1   
     9     4     5 ar  
    10     4    28 1   
    11     5     6 ar  
    12     5    29 1   
    13     6     7 ar  
    14     6    30 1   
    15     7    31 1   
    16     8     9 1   
    17     8    12 1   
    18     9    10 2   
    19     9    32 1   
    20    10    11 1   
    21    10    13 1   
    22    11    12 2   
    23    11    33 1   
    24    13    14 1   
    25    14    15 1   
    26    14    23 2   
    27    15    16 1   
    28    15    34 1   
    29    16    17 1   
    30    16    24 2   
    31    17    18 ar  
    32    17    22 ar  
    33    18    19 ar  
    34    18    35 1   
    35    19    20 ar  
    36    19    36 1   
    37    20    21 ar  
    38    21    22 ar  
    39    21    37 1   
    40    22    23 1   
@<TRIPOS>SUBSTRUCTURE
     1 GZA         1 TEMP              0 ****  ****    0 ROOT
