@<TRIPOS>MOLECULE
GZB
   21    21     1     0     0
SMALL
abcg2


@<TRIPOS>ATOM
      1 O           -2.8260    -1.5500    -0.4620 o          1 GZB      -0.729000
      2 C           -3.2920    -0.4150    -0.2360 c          1 GZB       0.713000
      3 CA          -2.2770     0.7150     0.0330 c3         1 GZB      -0.060000
      4 N           -0.9310     0.2070    -0.0280 ns         1 GZB      -0.455900
      5 CAE          0.1580     0.9520     0.1680 c          1 GZB       0.590700
      6 OAF          0.1080     2.1580     0.3910 o          1 GZB      -0.657100
      7 CAG          1.4760     0.2410     0.0880 ca         1 GZB      -0.126600
      8 CAH          1.6090    -1.1350     0.2640 ca         1 GZB      -0.076000
      9 CAI          2.8580    -1.7360     0.1930 ca         1 GZB      -0.132000
     10 CAJ          3.9870    -0.9690    -0.0580 ca         1 GZB      -0.113000
     11 CAK          3.8640     0.4040    -0.2290 ca         1 GZB      -0.132000
     12 CAL          2.6170     1.0050    -0.1470 ca         1 GZB      -0.076000
     13 O1          -4.4860    -0.0770    -0.2020 o          1 GZB      -0.729000
     14 H2          -2.4290     1.5120    -0.7010 h1         1 GZB       0.037200
     15 H3          -2.4840     1.1530     1.0140 h1         1 GZB       0.037200
     16 H4          -0.8770    -0.7710    -0.2730 hn         1 GZB       0.343500
     17 H5           0.7500    -1.7580     0.4810 ha         1 GZB       0.131000
     18 H6           2.9470    -2.8040     0.3380 ha         1 GZB       0.103000
     19 H7           4.9610    -1.4390    -0.1160 ha         1 GZB       0.097000
     20 H8           4.7400     1.0080    -0.4230 ha         1 GZB       0.103000
     21 H9           2.5270     2.0760    -0.2720 ha         1 GZB       0.131000
@<TRIPOS>BOND
     1     1     2 1   
     2     2     3 1   
     3     2    13 1   
     4     3     4 1   
     5     3    14 1   
     6     3    15 1   
     7     4     5 1   
     8     4    16 1   
     9     5     6 2   
    10     5     7 1   
    11     7     8 ar  
    12     7    12 ar  
    13     8     9 ar  
    14     8    17 1   
    15     9    10 ar  
    16     9    18 1   
    17    10    11 ar  
    18    10    19 1   
    19    11    12 ar  
    20    11    20 1   
    21    12    21 1   
@<TRIPOS>SUBSTRUCTURE
     1 GZB         1 TEMP              0 ****  ****    0 ROOT
