@<TRIPOS>MOLECULE
GZB
   21    21     1     0     0
SMALL
No Charge or Current Charge


@<TRIPOS>ATOM
      1 O           -3.0480    -1.5750     0.2290 o          1 GZB      -0.729000
      2 C           -3.3990    -0.4360    -0.0520 c          1 GZB       0.713000
      3 CA          -2.3540     0.7110     0.0470 c3         1 GZB      -0.060000
      4 N           -0.9600     0.2100     0.0290 ns         1 GZB      -0.455900
      5 CAE          0.1690     1.0010    -0.0080 c          1 GZB       0.590700
      6 OAF          0.0810     2.2230    -0.0350 o          1 GZB      -0.657100
      7 CAG          1.5070     0.2850    -0.0110 ca         1 GZB      -0.126600
      8 CAH          1.6100    -1.1300     0.0180 ca         1 GZB      -0.076000
      9 CAI          2.8700    -1.7550     0.0130 ca         1 GZB      -0.132000
     10 CAJ          4.0420    -0.9860    -0.0210 ca         1 GZB      -0.113000
     11 CAK          3.9570     0.4130    -0.0500 ca         1 GZB      -0.132000
     12 CAL          2.7010     1.0440    -0.0460 ca         1 GZB      -0.076000
     13 O1          -4.5230    -0.1560    -0.4420 o          1 GZB      -0.729000
     14 H2          -2.5020     1.3950    -0.7990 h1         1 GZB       0.037200
     15 H3          -2.5280     1.2590     0.9820 h1         1 GZB       0.037200
     16 H4          -0.8220    -0.7930     0.0590 hn         1 GZB       0.343500
     17 H5           0.7260    -1.7620     0.0450 ha         1 GZB       0.131000
     18 H6           2.9350    -2.8410     0.0360 ha         1 GZB       0.103000
     19 H7           5.0150    -1.4740    -0.0240 ha         1 GZB       0.097000
     20 H8           4.8640     1.0120    -0.0770 ha         1 GZB       0.103000
     21 H9           2.6580     2.1310    -0.0690 ha         1 GZB       0.131000
@<TRIPOS>BOND
     1     1     2 1   
     2     2     3 1   
     3     2    13 1   
     4     3     4 1   
     5     3    14 1   
     6     3    15 1   
     7     4     5 1   
     8     4    16 1   
     9     5     6 2   
    10     5     7 1   
    11     7     8 ar  
    12     7    12 ar  
    13     8     9 ar  
    14     8    17 1   
    15     9    10 ar  
    16     9    18 1   
    17    10    11 ar  
    18    10    19 1   
    19    11    12 ar  
    20    11    20 1   
    21    12    21 1   
@<TRIPOS>SUBSTRUCTURE
     1 GZB         1 TEMP              0 ****  ****    0 ROOT
