@<TRIPOS>MOLECULE
GZC
   50    51     1     0     0
SMALL
No Charge or Current Charge


@<TRIPOS>ATOM
      1 NAA         -7.5390     3.5870    -0.2150 nv         1 GZC      -1.048700
      2 CAB         -6.5690     2.7980    -0.5860 c2         1 GZC       0.817100
      3 NAC         -6.6340     1.8060     0.2720 nu         1 GZC      -0.958200
      4 CAD         -6.0020     0.5600     0.2710 ca         1 GZC       0.242000
      5 CAE         -6.7500    -0.5970     0.5440 ca         1 GZC      -0.095000
      6 CAF         -6.1240    -1.8560     0.5650 ca         1 GZC      -0.152500
      7 CAG          6.1430    -1.8680    -0.1980 ca         1 GZC      -0.152500
      8 CAH          6.7600    -0.6200    -0.3920 ca         1 GZC      -0.095000
      9 CAI          6.0020     0.5600    -0.3140 ca         1 GZC       0.242000
     10 NAJ          6.6210     1.7960    -0.5140 nu         1 GZC      -0.958200
     11 CAK          6.5520     2.9050     0.2040 c2         1 GZC       0.817100
     12 NAL          6.8420     3.9250    -0.5570 nv         1 GZC      -1.048700
     13 NAM         -6.0540     2.7020    -1.7150 n2         1 GZC      -0.897600
     14 CAN         -4.6170     0.4440     0.0330 ca         1 GZC      -0.056000
     15 CAO         -3.9720    -0.8150     0.0500 ca         1 GZC      -0.267400
     16 CAP         -4.7470    -1.9670     0.3190 ca         1 GZC       0.194600
     17 OAQ         -4.1730    -3.1970     0.3470 oh         1 GZC      -0.552600
     18 CAS          4.7680    -1.9470     0.0670 ca         1 GZC       0.194600
     19 CAT          3.9840    -0.7730     0.1410 ca         1 GZC      -0.267400
     20 CAU          4.6190     0.4760    -0.0560 ca         1 GZC      -0.056000
     21 NAV          6.1200     2.9390     1.3650 n2         1 GZC      -0.897600
     22 CAW         -2.5010    -0.8610    -0.2150 ce         1 GZC       0.524300
     23 NAX         -1.8420    -1.9810    -0.2000 n2         1 GZC      -0.670900
     24 CAY         -0.3920    -1.9930    -0.4650 c3         1 GZC       0.121300
     25 CAZ          0.4140    -1.8760     0.8520 c3         1 GZC       0.121300
     26 NBA          1.8640    -1.8970     0.5870 n2         1 GZC      -0.670900
     27 CBB          2.5130    -0.7850     0.4120 ce         1 GZC       0.524300
     28 HNAA        -7.6820     4.3540    -0.8560 hn         1 GZC       0.461500
     29 HNAB        -7.4160     3.8930     0.7410 hn         1 GZC       0.461500
     30 HNAC        -7.5690     1.7970     0.6560 hn         1 GZC       0.490000
     31 HAE         -7.8170    -0.5250     0.7380 ha         1 GZC       0.112000
     32 HAF         -6.7080    -2.7480     0.7730 ha         1 GZC       0.132000
     33 HAG          6.7350    -2.7790    -0.2550 ha         1 GZC       0.132000
     34 HAH          7.8260    -0.5730    -0.5960 ha         1 GZC       0.112000
     35 HNAJ         7.5200     1.7190    -0.9740 hn         1 GZC       0.490000
     36 HNAL         7.2800     3.6800    -1.4290 hn         1 GZC       0.461500
     37 HNAD         7.2440     4.6990    -0.0480 hn         1 GZC       0.461500
     38 HNAM        -6.3480     3.5150    -2.2650 hn         1 GZC       0.382900
     39 HAN         -4.0410     1.3450    -0.1650 ha         1 GZC       0.145000
     40 HOAQ        -3.2100    -3.0390     0.1540 ho         1 GZC       0.523000
     41 HOAR         3.2400    -2.9890     0.4140 ho         1 GZC       0.523000
     42 HAU          4.0360     1.3930    -0.0150 ha         1 GZC       0.145000
     43 HNAV         5.9350     1.9620     1.6090 hn         1 GZC       0.382900
     44 HAW         -2.0020     0.0910    -0.4100 h4         1 GZC      -0.017700
     45 HAY         -0.1080    -2.9280    -0.9670 h1         1 GZC       0.055700
     46 HAYA        -0.1060    -1.1690    -1.1340 h1         1 GZC       0.055700
     47 HAZ          0.1200    -0.9530     1.3710 h1         1 GZC       0.055700
     48 HAZA         0.1380    -2.7150     1.5050 h1         1 GZC       0.055700
     49 HBB          2.0060     0.1820     0.4450 h4         1 GZC      -0.017700
     50 OAR          4.2040    -3.1690     0.2490 oh         1 GZC      -0.552600
@<TRIPOS>BOND
     1     1     2 1   
     2     1    28 1   
     3     1    29 1   
     4     2     3 1   
     5     2    13 2   
     6     3     4 1   
     7     3    30 1   
     8     4     5 ar  
     9     4    14 ar  
    10     5     6 ar  
    11     5    31 1   
    12     6    16 ar  
    13     6    32 1   
    14     7     8 ar  
    15     7    18 ar  
    16     7    33 1   
    17     8     9 ar  
    18     8    34 1   
    19     9    10 1   
    20     9    20 ar  
    21    10    11 1   
    22    10    35 1   
    23    11    12 1   
    24    11    21 2   
    25    12    36 1   
    26    12    37 1   
    27    13    38 1   
    28    14    15 ar  
    29    14    39 1   
    30    15    16 ar  
    31    15    22 1   
    32    16    17 1   
    33    17    40 1   
    34    18    19 ar  
    35    18    50 1   
    36    19    20 ar  
    37    19    27 1   
    38    20    42 1   
    39    21    43 1   
    40    22    23 2   
    41    22    44 1   
    42    23    24 1   
    43    24    25 1   
    44    24    45 1   
    45    24    46 1   
    46    25    26 1   
    47    25    47 1   
    48    25    48 1   
    49    26    27 2   
    50    27    49 1   
    51    41    50 1   
@<TRIPOS>SUBSTRUCTURE
     1 GZC         1 TEMP              0 ****  ****    0 ROOT
