@<TRIPOS>MOLECULE
GZC
   50    51     1     0     0
SMALL
bcc


@<TRIPOS>ATOM
      1 NAA         -8.2110     3.3090    -0.7030 nv         1 GZC      -0.938300
      2 CAB         -7.0240     2.6080    -0.6550 c2         1 GZC       0.817100
      3 NAC         -7.1820     1.3600    -0.1070 nu         1 GZC      -0.764600
      4 CAD         -6.2420     0.3480     0.0790 ca         1 GZC       0.103600
      5 CAE         -6.7060    -0.8510     0.6400 ca         1 GZC      -0.113000
      6 CAF         -5.8660    -1.9200     0.8710 ca         1 GZC      -0.170500
      7 CAG          5.9340    -1.8500    -0.8750 ca         1 GZC      -0.170500
      8 CAH          6.7760    -0.8350    -0.4630 ca         1 GZC      -0.113000
      9 CAI          6.3040     0.2400     0.2940 ca         1 GZC       0.103600
     10 NAJ          7.1980     1.2270     0.7460 nu         1 GZC      -0.764600
     11 CAK          7.1400     2.5760     0.4690 c2         1 GZC       0.817100
     12 NAL          6.0410     2.9920    -0.2360 nv         1 GZC      -0.938300
     13 NAM         -5.8980     3.0130    -1.1080 n2         1 GZC      -0.897600
     14 CAN         -4.8950     0.4330    -0.2410 ca         1 GZC      -0.074000
     15 CAO         -4.0320    -0.6450    -0.0110 ca         1 GZC      -0.267400
     16 CAP         -4.5120    -1.8400     0.5500 ca         1 GZC       0.194600
     17 OAQ         -3.7210    -2.8920     0.7810 oh         1 GZC      -0.513600
     18 CAS          4.5740    -1.8110    -0.5630 ca         1 GZC       0.194600
     19 CAT          4.0850    -0.7300     0.1980 ca         1 GZC      -0.267400
     20 CAU          4.9600     0.2690     0.6280 ca         1 GZC      -0.074000
     21 NAV          8.0070     3.4310     0.8710 n2         1 GZC      -0.897600
     22 CAW         -2.6310    -0.5090    -0.3790 ce         1 GZC       0.524300
     23 NAX         -1.8020    -1.4580    -0.2110 n2         1 GZC      -0.670900
     24 CAY         -0.4240    -1.2860    -0.5900 c3         1 GZC       0.121300
     25 CAZ          0.4740    -1.4540     0.6330 c3         1 GZC       0.121300
     26 NBA          1.8510    -1.5530     0.2250 n2         1 GZC      -0.670900
     27 CBB          2.6830    -0.6600     0.5810 ce         1 GZC       0.524300
     28 HNAA        -8.1120     4.2970    -0.8720 hn         1 GZC       0.406300
     29 HNAB        -8.8840     3.1260     0.0250 hn         1 GZC       0.406300
     30 HNAC        -8.1260     1.0970     0.1240 hn         1 GZC       0.434800
     31 HAE         -7.7540    -0.9490     0.9000 ha         1 GZC       0.130000
     32 HAF         -6.2610    -2.8310     1.3040 ha         1 GZC       0.150000
     33 HAG          6.3230    -2.6780    -1.4540 ha         1 GZC       0.150000
     34 HAH          7.8240    -0.8760    -0.7340 ha         1 GZC       0.130000
     35 HNAJ         8.0980     0.8970     1.0570 hn         1 GZC       0.434800
     36 HNAL         5.6620     2.3640    -0.9270 hn         1 GZC       0.406300
     37 HNAD         6.1180     3.9390    -0.5700 hn         1 GZC       0.406300
     38 HNAM        -5.9760     3.9640    -1.4500 hn         1 GZC       0.382900
     39 HAN         -4.5060     1.3410    -0.6780 ha         1 GZC       0.163000
     40 HOAQ        -2.8060    -2.6430     0.4820 ho         1 GZC       0.484000
     41 HOAR         2.8620    -2.5940    -0.6720 ho         1 GZC       0.484000
     42 HAU          4.5700     1.0760     1.2370 ha         1 GZC       0.163000
     43 HNAV         8.7080     2.9910     1.4550 hn         1 GZC       0.382900
     44 HAW         -2.3250     0.4480    -0.8150 h4         1 GZC      -0.017700
     45 HAY         -0.1680    -2.0560    -1.3220 h1         1 GZC       0.055700
     46 HAYA        -0.2410    -0.3100    -1.0560 h1         1 GZC       0.055700
     47 HAZ          0.3080    -0.6280     1.3350 h1         1 GZC       0.055700
     48 HAZA         0.1990    -2.3820     1.1400 h1         1 GZC       0.055700
     49 HBB          2.3820     0.1930     1.1980 h4         1 GZC      -0.017700
     50 OAR          3.7840    -2.7940    -0.9860 oh         1 GZC      -0.513600
@<TRIPOS>BOND
     1     1     2 1   
     2     1    28 1   
     3     1    29 1   
     4     2     3 1   
     5     2    13 2   
     6     3     4 1   
     7     3    30 1   
     8     4     5 ar  
     9     4    14 ar  
    10     5     6 ar  
    11     5    31 1   
    12     6    16 ar  
    13     6    32 1   
    14     7     8 ar  
    15     7    18 ar  
    16     7    33 1   
    17     8     9 ar  
    18     8    34 1   
    19     9    10 1   
    20     9    20 ar  
    21    10    11 1   
    22    10    35 1   
    23    11    12 1   
    24    11    21 2   
    25    12    36 1   
    26    12    37 1   
    27    13    38 1   
    28    14    15 ar  
    29    14    39 1   
    30    15    16 ar  
    31    15    22 1   
    32    16    17 1   
    33    17    40 1   
    34    18    19 ar  
    35    18    50 1   
    36    19    20 ar  
    37    19    27 1   
    38    20    42 1   
    39    21    43 1   
    40    22    23 2   
    41    22    44 1   
    42    23    24 1   
    43    24    25 1   
    44    24    45 1   
    45    24    46 1   
    46    25    26 1   
    47    25    47 1   
    48    25    48 1   
    49    26    27 2   
    50    27    49 1   
    51    41    50 1   
@<TRIPOS>SUBSTRUCTURE
     1 GZC         1 TEMP              0 ****  ****    0 ROOT
