@<TRIPOS>MOLECULE
GZD
   58    60     1     0     0
SMALL
No Charge or Current Charge


@<TRIPOS>ATOM
      1 C4          -7.0430     1.2150    -1.2280 c3         1 GZD       0.075233
      2 C5          -5.7460    -0.5800    -0.0150 c3         1 GZD       0.099600
      3 C6          -4.3730     0.1260    -0.0070 c3         1 GZD      -0.100400
      4 C7          -3.1990    -0.8740    -0.0240 c3         1 GZD      -0.073400
      5 C8          -1.8190    -0.1800    -0.0040 c3         1 GZD      -0.080400
      6 C13          3.3290     0.3850    -1.2570 c6         1 GZD      -0.061733
      7 C15          5.8560     0.0960    -1.2450 c6         1 GZD      -0.069067
      8 C17          4.3820    -1.5300     0.0320 c6         1 GZD      -0.061733
      9 C20          4.7910     2.0330     0.0050 c6         1 GZD      -0.069067
     10 C21          3.3190     0.4030     1.2860 c6         1 GZD      -0.061733
     11 C1          -7.0220     1.1720     1.2790 c3         1 GZD       0.075233
     12 C11          1.8410    -1.3070     0.0220 c3         1 GZD       0.168800
     13 C12          3.1920    -0.5110     0.0210 c6         1 GZD      -0.046000
     14 C14          4.6960     1.1320    -1.2600 c6         1 GZD      -0.058367
     15 C16          5.7490    -0.7860     0.0320 c6         1 GZD      -0.058367
     16 C18          5.8440     0.1160     1.2960 c6         1 GZD      -0.069067
     17 C19          4.6840     1.1530     1.2840 c6         1 GZD      -0.058367
     18 C3          -8.2430    -0.5960     0.0040 c3         1 GZD       0.075233
     19 C9          -0.6450    -1.1790    -0.0150 c3         1 GZD       0.165800
     20 N10          0.6340    -0.4540     0.0170 n7         1 GZD      -0.862400
     21 N2          -7.0010     0.3070     0.0100 n4         1 GZD      -0.497000
     22 H1          -6.1860     1.8910    -1.2060 hx         1 GZD       0.097367
     23 H2          -7.0050     0.6000    -2.1290 hx         1 GZD       0.097367
     24 H3          -7.9670     1.7970    -1.2180 hx         1 GZD       0.097367
     25 H4          -5.8060    -1.2050    -0.9090 hx         1 GZD       0.093200
     26 H5          -5.7980    -1.2400     0.8540 hx         1 GZD       0.093200
     27 H6          -4.2960     0.7860    -0.8790 hc         1 GZD       0.063700
     28 H7          -4.2920     0.7570     0.8860 hc         1 GZD       0.063700
     29 H8          -3.2800    -1.5400     0.8440 hc         1 GZD       0.051700
     30 H9          -3.2740    -1.5030    -0.9200 hc         1 GZD       0.051700
     31 H10         -1.7360     0.4840    -0.8740 hc         1 GZD       0.052200
     32 H11         -1.7450     0.4490     0.8910 hc         1 GZD       0.052200
     33 H13          2.5170     1.1240    -1.2980 hc         1 GZD       0.039033
     34 H14          5.8150    -0.5330    -2.1450 hc         1 GZD       0.042033
     35 H15          6.8260     0.6110    -1.2700 hc         1 GZD       0.042033
     36 H16          4.3150    -2.1810     0.9150 hc         1 GZD       0.039033
     37 H17          4.3210    -2.1930    -0.8420 hc         1 GZD       0.039033
     38 H18          5.7400     2.5880     0.0050 hc         1 GZD       0.042033
     39 H19          3.9920     2.7870    -0.0050 hc         1 GZD       0.042033
     40 H20          2.5000     1.1350     1.3170 hc         1 GZD       0.039033
     41 H21          3.2260    -0.2000     2.2010 hc         1 GZD       0.039033
     42 H22         -7.9420     1.7610     1.2990 hx         1 GZD       0.097367
     43 H23         -6.9810     0.5250     2.1570 hx         1 GZD       0.097367
     44 H24         -6.1610     1.8420     1.2750 hx         1 GZD       0.097367
     45 H25          1.8330    -1.9630    -0.8600 h1         1 GZD       0.031200
     46 H26          1.8290    -1.9580     0.9070 h1         1 GZD       0.031200
     47 H27          4.7720     1.7550    -2.1610 hc         1 GZD       0.051367
     48 H28          6.5670    -1.5200     0.0420 hc         1 GZD       0.051367
     49 H29          5.7950    -0.4980     2.2050 hc         1 GZD       0.042033
     50 H30          6.8140     0.6320     1.3220 hc         1 GZD       0.042033
     51 H31          4.7540     1.7910     2.1760 hc         1 GZD       0.051367
     52 H32         -8.2390    -1.2100    -0.8990 hx         1 GZD       0.097367
     53 H33         -8.2250    -1.2400     0.8850 hx         1 GZD       0.097367
     54 H34         -9.1410     0.0240     0.0220 hx         1 GZD       0.097367
     55 H35         -0.7300    -1.8420     0.8570 h1         1 GZD       0.030200
     56 H36         -0.7100    -1.8010    -0.9190 h1         1 GZD       0.030200
     57 H37          0.6810     0.1500    -0.8100 hn         1 GZD       0.408000
     58 H12          3.2360    -0.2280    -2.1650 hc         1 GZD       0.039033
@<TRIPOS>BOND
     1     1    21 1   
     2     1    22 1   
     3     1    23 1   
     4     1    24 1   
     5     2     3 1   
     6     2    21 1   
     7     2    25 1   
     8     2    26 1   
     9     3     4 1   
    10     3    27 1   
    11     3    28 1   
    12     4     5 1   
    13     4    29 1   
    14     4    30 1   
    15     5    19 1   
    16     5    31 1   
    17     5    32 1   
    18     6    13 1   
    19     6    14 1   
    20     6    33 1   
    21     6    58 1   
    22     7    14 1   
    23     7    15 1   
    24     7    34 1   
    25     7    35 1   
    26     8    13 1   
    27     8    15 1   
    28     8    36 1   
    29     8    37 1   
    30     9    14 1   
    31     9    17 1   
    32     9    38 1   
    33     9    39 1   
    34    10    13 1   
    35    10    17 1   
    36    10    40 1   
    37    10    41 1   
    38    11    21 1   
    39    11    42 1   
    40    11    43 1   
    41    11    44 1   
    42    12    13 1   
    43    12    20 1   
    44    12    45 1   
    45    12    46 1   
    46    14    47 1   
    47    15    16 1   
    48    15    48 1   
    49    16    17 1   
    50    16    49 1   
    51    16    50 1   
    52    17    51 1   
    53    18    21 1   
    54    18    52 1   
    55    18    53 1   
    56    18    54 1   
    57    19    20 1   
    58    19    55 1   
    59    19    56 1   
    60    20    57 1   
@<TRIPOS>SUBSTRUCTURE
     1 GZD         1 TEMP              0 ****  ****    0 ROOT
