@<TRIPOS>MOLECULE
GZD
   58    60     1     0     0
SMALL
bcc


@<TRIPOS>ATOM
      1 C4          -6.9170     1.1310    -1.1930 c3         1 GZD       0.103433
      2 C5          -5.6270    -0.5800     0.0310 c3         1 GZD       0.127800
      3 C6          -4.3040     0.1600    -0.0090 c3         1 GZD      -0.100400
      4 C7          -3.1490    -0.8390    -0.0080 c3         1 GZD      -0.073400
      5 C8          -1.7980    -0.1380    -0.0540 c3         1 GZD      -0.080400
      6 C13          3.2960     0.3960    -1.2640 c6         1 GZD      -0.061733
      7 C15          5.7770     0.0980    -1.1760 c6         1 GZD      -0.069067
      8 C17          4.2740    -1.5080     0.0020 c6         1 GZD      -0.061733
      9 C20          4.6950     1.9920     0.0460 c6         1 GZD      -0.069067
     10 C21          3.2040     0.3750     1.2310 c6         1 GZD      -0.061733
     11 C1          -6.8810     1.1700     1.2390 c3         1 GZD       0.103433
     12 C11          1.7940    -1.2620    -0.0820 c3         1 GZD       0.168800
     13 C12          3.1170    -0.4980    -0.0280 c6         1 GZD      -0.046000
     14 C14          4.6430     1.1220    -1.2110 c6         1 GZD      -0.058367
     15 C16          5.6230    -0.7890     0.0610 c6         1 GZD      -0.058367
     16 C18          5.6840     0.0820     1.3180 c6         1 GZD      -0.069067
     17 C19          4.5470     1.1060     1.2850 c6         1 GZD      -0.058367
     18 C3          -8.0520    -0.5960     0.0670 c3         1 GZD       0.103433
     19 C9          -0.6260    -1.1080    -0.0470 c3         1 GZD       0.165800
     20 N10          0.6330    -0.3930    -0.0900 n7         1 GZD      -0.807200
     21 N2          -6.8570     0.2930     0.0360 n4         1 GZD      -0.609800
     22 H1          -6.0990     1.8440    -1.1950 hx         1 GZD       0.097367
     23 H2          -6.8500     0.4880    -2.0670 hx         1 GZD       0.097367
     24 H3          -7.8610     1.6690    -1.2050 hx         1 GZD       0.097367
     25 H4          -5.7240    -1.2330    -0.8380 hx         1 GZD       0.093200
     26 H5          -5.6910    -1.1990     0.9260 hx         1 GZD       0.093200
     27 H6          -4.2330     0.7820    -0.9040 hc         1 GZD       0.063700
     28 H7          -4.2000     0.8210     0.8540 hc         1 GZD       0.063700
     29 H8          -3.2080    -1.4660     0.8860 hc         1 GZD       0.051700
     30 H9          -3.2460    -1.5120    -0.8660 hc         1 GZD       0.051700
     31 H10         -1.7450     0.4860    -0.9530 hc         1 GZD       0.052200
     32 H11         -1.7030     0.5390     0.8000 hc         1 GZD       0.052200
     33 H13          2.4950     1.1420    -1.3210 hc         1 GZD       0.039033
     34 H14          5.7600    -0.5130    -2.0850 hc         1 GZD       0.042033
     35 H15          6.7460     0.6080    -1.1570 hc         1 GZD       0.042033
     36 H16          4.1620    -2.1690     0.8690 hc         1 GZD       0.039033
     37 H17          4.2310    -2.1450    -0.8890 hc         1 GZD       0.039033
     38 H18          5.6380     2.5470     0.0850 hc         1 GZD       0.042033
     39 H19          3.8930     2.7370     0.0190 hc         1 GZD       0.042033
     40 H20          2.3780     1.0920     1.2410 hc         1 GZD       0.039033
     41 H21          3.0870    -0.2550     2.1210 hc         1 GZD       0.039033
     42 H22         -7.8170     1.7220     1.2500 hx         1 GZD       0.097367
     43 H23         -6.8100     0.5520     2.1300 hx         1 GZD       0.097367
     44 H24         -6.0520     1.8670     1.2040 hx         1 GZD       0.097367
     45 H25          1.8120    -1.9420    -0.9530 h1         1 GZD       0.031200
     46 H26          1.7260    -1.9050     0.8030 h1         1 GZD       0.031200
     47 H27          4.7450     1.7550    -2.0990 hc         1 GZD       0.051367
     48 H28          6.4280    -1.5310     0.0870 hc         1 GZD       0.051367
     49 H29          5.6010    -0.5420     2.2140 hc         1 GZD       0.042033
     50 H30          6.6510     0.5920     1.3730 hc         1 GZD       0.042033
     51 H31          4.5860     1.7270     2.1860 hc         1 GZD       0.051367
     52 H32         -8.0470    -1.2320    -0.8140 hx         1 GZD       0.097367
     53 H33         -8.0200    -1.2070     0.9650 hx         1 GZD       0.097367
     54 H34         -8.9500     0.0160     0.0730 hx         1 GZD       0.097367
     55 H35         -0.6550    -1.7040     0.8720 h1         1 GZD       0.030200
     56 H36         -0.7390    -1.8240    -0.8780 h1         1 GZD       0.030200
     57 H37          0.6480     0.1700    -0.9330 hn         1 GZD       0.352800
     58 H12          3.2320    -0.2120    -2.1740 hc         1 GZD       0.039033
@<TRIPOS>BOND
     1     1    21 1   
     2     1    22 1   
     3     1    23 1   
     4     1    24 1   
     5     2     3 1   
     6     2    21 1   
     7     2    25 1   
     8     2    26 1   
     9     3     4 1   
    10     3    27 1   
    11     3    28 1   
    12     4     5 1   
    13     4    29 1   
    14     4    30 1   
    15     5    19 1   
    16     5    31 1   
    17     5    32 1   
    18     6    13 1   
    19     6    14 1   
    20     6    33 1   
    21     6    58 1   
    22     7    14 1   
    23     7    15 1   
    24     7    34 1   
    25     7    35 1   
    26     8    13 1   
    27     8    15 1   
    28     8    36 1   
    29     8    37 1   
    30     9    14 1   
    31     9    17 1   
    32     9    38 1   
    33     9    39 1   
    34    10    13 1   
    35    10    17 1   
    36    10    40 1   
    37    10    41 1   
    38    11    21 1   
    39    11    42 1   
    40    11    43 1   
    41    11    44 1   
    42    12    13 1   
    43    12    20 1   
    44    12    45 1   
    45    12    46 1   
    46    14    47 1   
    47    15    16 1   
    48    15    48 1   
    49    16    17 1   
    50    16    49 1   
    51    16    50 1   
    52    17    51 1   
    53    18    21 1   
    54    18    52 1   
    55    18    53 1   
    56    18    54 1   
    57    19    20 1   
    58    19    55 1   
    59    19    56 1   
    60    20    57 1   
@<TRIPOS>SUBSTRUCTURE
     1 GZD         1 TEMP              0 ****  ****    0 ROOT
