@<TRIPOS>MOLECULE
GZE
   37    38     1     0     0
SMALL
abcg2


@<TRIPOS>ATOM
      1 C2          -4.9920     0.4930    -0.0320 ca         1 GZE      -0.160300
      2 C3          -3.6850     0.9150     0.1350 ca         1 GZE      -0.124000
      3 C4          -2.6090     0.1840    -0.3750 ca         1 GZE      -0.004000
      4 C5          -2.8740    -0.9970    -1.0680 ca         1 GZE      -0.101000
      5 C6          -4.1830    -1.4170    -1.2380 ca         1 GZE      -0.081000
      6 O1           6.4110     0.5410    -0.7660 os         1 GZE      -0.436800
      7 C7          -5.2410    -0.6870    -0.7290 ca         1 GZE       0.130000
      8 C9          -6.1150     1.3060     0.5460 c3         1 GZE       0.364300
      9 O3           8.6460     0.0390    -0.1100 o          1 GZE      -0.547000
     10 CL8         -6.8490    -1.2720    -0.9800 cl         1 GZE      -0.167000
     11 F10         -5.6740     2.3960     1.1770 f          1 GZE      -0.108000
     12 F11         -6.9660     1.7210    -0.3980 f          1 GZE      -0.108000
     13 F12         -6.8260     0.6030     1.4350 f          1 GZE      -0.108000
     14 N13         -1.3450     0.7100    -0.1420 ns         1 GZE      -0.161000
     15 C14         -0.1290     0.2040    -0.5240 c          1 GZE       0.675100
     16 O15          0.0070    -0.8340    -1.1440 o          1 GZE      -0.599100
     17 N16          0.9080     1.0040    -0.1260 ns         1 GZE      -0.158000
     18 C17          2.2740     0.8070    -0.3170 ca         1 GZE      -0.001000
     19 C18          3.1220     1.7630     0.2530 ca         1 GZE      -0.142500
     20 C19          4.4950     1.6670     0.1280 ca         1 GZE      -0.073500
     21 C20          5.0380     0.6100    -0.5830 ca         1 GZE       0.086100
     22 C21          4.2190    -0.3430    -1.1580 ca         1 GZE      -0.073500
     23 C22          2.8400    -0.2500    -1.0330 ca         1 GZE      -0.142500
     24 S2           7.3050    -0.2010     0.3630 s6         1 GZE       1.395800
     25 O5           6.8890     0.2460     1.6710 o          1 GZE      -0.547000
     26 N6           6.8330    -1.7490     0.2080 n8         1 GZE      -1.069100
     27 H1          -3.4810     1.8300     0.6760 ha         1 GZE       0.129000
     28 H2          -2.0800    -1.5970    -1.4780 ha         1 GZE       0.160000
     29 H3          -4.3750    -2.3330    -1.7780 ha         1 GZE       0.139000
     30 H4          -1.3440     1.5770     0.3730 hn         1 GZE       0.151000
     31 H5           0.6780     1.8370     0.3950 hn         1 GZE       0.151000
     32 H6           2.7020     2.5960     0.8030 ha         1 GZE       0.135500
     33 H7           5.1300     2.4230     0.5700 ha         1 GZE       0.136000
     34 H8           4.6470    -1.1640    -1.7180 ha         1 GZE       0.136000
     35 H9           2.2270    -1.0040    -1.4960 ha         1 GZE       0.135500
     36 H10          7.3040    -2.2700    -0.5210 hn         1 GZE       0.494000
     37 H11          6.7810    -2.2520     1.0850 hn         1 GZE       0.494000
@<TRIPOS>BOND
     1     1     2 ar  
     2     1     7 ar  
     3     1     8 1   
     4     2     3 ar  
     5     2    27 1   
     6     3     4 ar  
     7     3    14 1   
     8     4     5 ar  
     9     4    28 1   
    10     5     7 ar  
    11     5    29 1   
    12     6    21 1   
    13     6    24 1   
    14     7    10 1   
    15     8    11 1   
    16     8    12 1   
    17     8    13 1   
    18     9    24 2   
    19    14    15 1   
    20    14    30 1   
    21    15    16 2   
    22    15    17 1   
    23    17    18 1   
    24    17    31 1   
    25    18    19 ar  
    26    18    23 ar  
    27    19    20 ar  
    28    19    32 1   
    29    20    21 ar  
    30    20    33 1   
    31    21    22 ar  
    32    22    23 ar  
    33    22    34 1   
    34    23    35 1   
    35    24    25 2   
    36    24    26 1   
    37    26    36 1   
    38    26    37 1   
@<TRIPOS>SUBSTRUCTURE
     1 GZE         1 TEMP              0 ****  ****    0 ROOT
