@<TRIPOS>MOLECULE
GZE
   37    38     1     0     0
SMALL
No Charge or Current Charge


@<TRIPOS>ATOM
      1 C2          -5.1400     0.5990    -0.0500 ca         1 GZE      -0.160300
      2 C3          -3.7790     0.9730     0.0780 ca         1 GZE      -0.124000
      3 C4          -2.7400     0.1380    -0.3760 ca         1 GZE      -0.004000
      4 C5          -3.0670    -1.0970    -0.9730 ca         1 GZE      -0.101000
      5 C6          -4.4110    -1.4810    -1.1060 ca         1 GZE      -0.081000
      6 O1           6.4760     0.6460    -0.5250 os         1 GZE      -0.436800
      7 C7          -5.4430    -0.6460    -0.6510 ca         1 GZE       0.130000
      8 C9          -6.2590     1.5280     0.4550 c3         1 GZE       0.364300
      9 O3           8.6720     0.1690     0.6900 o          1 GZE      -0.547000
     10 Cl8         -7.1040    -1.2060    -0.8580 cl         1 GZE      -0.167000
     11 F10         -5.7890     2.6730     1.0000 f          1 GZE      -0.108000
     12 F11         -7.0940     1.8970    -0.5430 f          1 GZE      -0.108000
     13 F12         -7.0120     0.9340     1.4090 f          1 GZE      -0.108000
     14 N13         -1.4050     0.6020    -0.2040 ns         1 GZE      -0.161000
     15 C14         -0.1730     0.0460    -0.5180 c          1 GZE       0.675100
     16 O15         -0.0270    -1.0500    -1.0480 o          1 GZE      -0.599100
     17 N16          0.8710     0.8860    -0.1550 ns         1 GZE      -0.158000
     18 C17          2.2840     0.7680    -0.2750 ca         1 GZE      -0.001000
     19 C18          3.0700     1.8080     0.2600 ca         1 GZE      -0.142500
     20 C19          4.4730     1.7640     0.1790 ca         1 GZE      -0.073500
     21 C20          5.1060     0.6710    -0.4340 ca         1 GZE       0.086100
     22 C21          4.3340    -0.3650    -0.9860 ca         1 GZE      -0.073500
     23 C22          2.9290    -0.3210    -0.9040 ca         1 GZE      -0.142500
     24 S2           7.3250    -0.3490     0.4670 s6         1 GZE       1.395800
     25 O5           6.4940    -0.8400     1.5650 o          1 GZE      -0.547000
     26 N6           7.5230    -1.6100    -0.5340 n8         1 GZE      -1.069100
     27 H1          -3.5160     1.9240     0.5360 ha         1 GZE       0.129000
     28 H2          -2.3020    -1.7740    -1.3390 ha         1 GZE       0.160000
     29 H3          -4.6550    -2.4350    -1.5670 ha         1 GZE       0.139000
     30 H4          -1.3470     1.5130     0.2320 hn         1 GZE       0.151000
     31 H5           0.5730     1.7500     0.2790 hn         1 GZE       0.151000
     32 H6           2.5920     2.6590     0.7420 ha         1 GZE       0.135500
     33 H7           5.0690     2.5750     0.5910 ha         1 GZE       0.136000
     34 H8           4.8210    -1.2020    -1.4800 ha         1 GZE       0.136000
     35 H9           2.3670    -1.1390    -1.3420 ha         1 GZE       0.135500
     36 H10          8.5300    -1.5450    -0.6530 hn         1 GZE       0.494000
     37 H11          7.4420    -2.3630     0.1430 hn         1 GZE       0.494000
@<TRIPOS>BOND
     1     1     2 ar  
     2     1     7 ar  
     3     1     8 1   
     4     2     3 ar  
     5     2    27 1   
     6     3     4 ar  
     7     3    14 1   
     8     4     5 ar  
     9     4    28 1   
    10     5     7 ar  
    11     5    29 1   
    12     6    21 1   
    13     6    24 1   
    14     7    10 1   
    15     8    11 1   
    16     8    12 1   
    17     8    13 1   
    18     9    24 2   
    19    14    15 1   
    20    14    30 1   
    21    15    16 2   
    22    15    17 1   
    23    17    18 1   
    24    17    31 1   
    25    18    19 ar  
    26    18    23 ar  
    27    19    20 ar  
    28    19    32 1   
    29    20    21 ar  
    30    20    33 1   
    31    21    22 ar  
    32    22    23 ar  
    33    22    34 1   
    34    23    35 1   
    35    24    25 2   
    36    24    26 1   
    37    26    36 1   
    38    26    37 1   
@<TRIPOS>SUBSTRUCTURE
     1 GZE         1 TEMP              0 ****  ****    0 ROOT
