@<TRIPOS>MOLECULE
GZG
   60    63     1     0     0
SMALL
No Charge or Current Charge


@<TRIPOS>ATOM
      1 C4          -0.8410    -0.1890    -0.6560 c3         1 GZG       0.167800
      2 C5          -0.0690    -0.8000     0.5340 c3         1 GZG       0.048600
      3 C6           2.1220     0.4350     0.6640 ca         1 GZG       0.014000
      4 C7           3.5430     0.4550     0.5870 ca         1 GZG       0.153000
      5 C8           3.6280    -1.7020    -0.1850 cc         1 GZG       0.209500
      6 C9           4.3250    -2.9340    -0.6990 c          1 GZG       0.485500
      7 C10          2.1430    -4.0210    -0.9890 c          1 GZG       0.727400
      8 C11          2.1900    -1.8060    -0.1300 cc         1 GZG       0.107000
      9 C12          4.2360     1.6330     0.9210 ca         1 GZG      -0.023000
     10 C13          3.5660     2.8040     1.3170 ca         1 GZG      -0.115300
     11 C14          4.3750     4.0540     1.6550 c3         1 GZG      -0.040800
     12 C15          2.1590     2.8000     1.3800 ca         1 GZG      -0.004300
     13 C16          1.3830     4.0480     1.7920 c3         1 GZG      -0.061800
     14 N1           1.4100    -0.7460     0.3460 na         1 GZG      -0.009000
     15 C19         -2.1850     2.4020    -1.3520 ca         1 GZG      -0.076300
     16 O1          -7.5470    -1.9730     0.3880 o          1 GZG      -0.740500
     17 C20         -2.2840     3.2290    -0.2150 ca         1 GZG      -0.102500
     18 C17          1.4540     1.6280     1.0540 ca         1 GZG      -0.156000
     19 O           -6.7780    -1.8680     2.3970 o          1 GZG      -0.740500
     20 C           -6.6340    -2.0450     1.1970 c          1 GZG       0.719000
     21 C1          -5.2160    -2.3150     0.6680 c3         1 GZG      -0.209400
     22 C2          -4.5100    -0.9780     0.3260 c3         1 GZG      -0.054400
     23 N           -2.2810     0.0760    -0.3850 n3         1 GZG      -0.751600
     24 C24         -1.4370     2.8420    -2.4620 ca         1 GZG      -0.102500
     25 C23         -0.7940     4.0920    -2.4340 ca         1 GZG      -0.122000
     26 C22         -0.8990     4.9120    -1.2980 ca         1 GZG      -0.128000
     27 C21         -1.6450     4.4810    -0.1890 ca         1 GZG      -0.122000
     28 N2           4.3390    -0.6270     0.1740 nd         1 GZG      -0.529000
     29 N4           1.5000    -2.8740    -0.5030 nd         1 GZG      -0.438400
     30 N3           3.5000    -3.9710    -1.0490 ns         1 GZG      -0.500500
     31 H1          -0.3310     0.7460    -0.9170 h1         1 GZG       0.037700
     32 H2          -0.7330    -0.8510    -1.5260 h1         1 GZG       0.037700
     33 H3          -0.3380    -0.2780     1.4590 h1         1 GZG       0.092200
     34 H4          -0.3900    -1.8370     0.6810 h1         1 GZG       0.092200
     35 H5           5.3220     1.6340     0.8610 ha         1 GZG       0.135000
     36 H6           4.0560     4.9100     1.0480 hc         1 GZG       0.042367
     37 H7           4.2570     4.3260     2.7110 hc         1 GZG       0.042367
     38 H8           5.4470     3.9090     1.4740 hc         1 GZG       0.042367
     39 H9           1.4610     4.8280     1.0260 hc         1 GZG       0.052033
     40 H10          0.3180     3.8360     1.9390 hc         1 GZG       0.052033
     41 H11          1.7610     4.4600     2.7350 hc         1 GZG       0.052033
     42 H12         -2.8530     2.8940     0.6500 ha         1 GZG       0.124500
     43 H13          0.3710     1.6780     1.1030 ha         1 GZG       0.145000
     44 H14         -3.9290     1.2130    -1.1450 h1         1 GZG       0.048700
     45 H15         -2.8220     0.6130    -2.3780 h1         1 GZG       0.048700
     46 H17         -4.6010    -2.7900     1.4420 hc         1 GZG       0.019700
     47 H18         -5.2570    -2.8800    -0.2720 hc         1 GZG       0.019700
     48 H19         -5.1210    -0.4420    -0.4090 hc         1 GZG       0.043700
     49 H20         -4.4640    -0.3540     1.2270 hc         1 GZG       0.043700
     50 H21         -2.5620    -1.8470     0.4720 h1         1 GZG       0.032200
     51 H22         -3.1380    -1.7020    -1.1860 h1         1 GZG       0.032200
     52 H24         -1.3470     2.2120    -3.3450 ha         1 GZG       0.124500
     53 H25         -0.2150     4.4250    -3.2930 ha         1 GZG       0.106000
     54 H26         -0.4010     5.8790    -1.2770 ha         1 GZG       0.102000
     55 H27         -1.7260     5.1140     0.6910 ha         1 GZG       0.106000
     56 H28          3.9490    -4.8040    -1.3980 hn         1 GZG       0.335500
     57 O2           1.5200    -5.0070    -1.3350 o          1 GZG      -0.495000
     58 O3           5.5370    -3.0580    -0.8200 o          1 GZG      -0.506000
     59 C18         -2.8690     1.0350    -1.3650 c3         1 GZG       0.223100
     60 C3          -3.0760    -1.1740    -0.2250 c3         1 GZG       0.162800
@<TRIPOS>BOND
     1     1     2 1   
     2     1    23 1   
     3     1    31 1   
     4     1    32 1   
     5     2    14 1   
     6     2    33 1   
     7     2    34 1   
     8     3     4 ar  
     9     3    14 1   
    10     3    18 ar  
    11     4     9 ar  
    12     4    28 1   
    13     5     6 1   
    14     5     8 1   
    15     5    28 2   
    16     6    30 1   
    17     6    58 2   
    18     7    29 1   
    19     7    30 1   
    20     7    57 2   
    21     8    14 1   
    22     8    29 2   
    23     9    10 ar  
    24     9    35 1   
    25    10    11 1   
    26    10    12 ar  
    27    11    36 1   
    28    11    37 1   
    29    11    38 1   
    30    12    13 1   
    31    12    18 ar  
    32    13    39 1   
    33    13    40 1   
    34    13    41 1   
    35    15    17 ar  
    36    15    24 ar  
    37    15    59 1   
    38    16    20 1   
    39    17    27 ar  
    40    17    42 1   
    41    18    43 1   
    42    19    20 1   
    43    20    21 1   
    44    21    22 1   
    45    21    46 1   
    46    21    47 1   
    47    22    48 1   
    48    22    49 1   
    49    22    60 1   
    50    23    59 1   
    51    23    60 1   
    52    24    25 ar  
    53    24    52 1   
    54    25    26 ar  
    55    25    53 1   
    56    26    27 ar  
    57    26    54 1   
    58    27    55 1   
    59    30    56 1   
    60    44    59 1   
    61    45    59 1   
    62    50    60 1   
    63    51    60 1   
@<TRIPOS>SUBSTRUCTURE
     1 GZG         1 TEMP              0 ****  ****    0 ROOT
