@<TRIPOS>MOLECULE
GZG
   60    63     1     0     0
SMALL
abcg2


@<TRIPOS>ATOM
      1 C4          -0.7600     0.0150    -0.7660 c3         1 GZG       0.167800
      2 C5          -0.1750    -0.2440     0.6180 c3         1 GZG       0.048600
      3 C6           2.1320     0.6240     0.5810 ca         1 GZG       0.014000
      4 C7           3.5190     0.3710     0.5450 ca         1 GZG       0.153000
      5 C8           3.1730    -1.8690     0.4350 cc         1 GZG       0.209500
      6 C9           3.7080    -3.2480     0.3510 c          1 GZG       0.485500
      7 C10          1.3530    -3.9800     0.3010 c          1 GZG       0.727400
      8 C11          1.7400    -1.7180     0.4580 cc         1 GZG       0.107000
      9 C12          4.4240     1.4460     0.5710 ca         1 GZG      -0.023000
     10 C13          3.9940     2.7470     0.6180 ca         1 GZG      -0.115300
     11 C14          4.9710     3.8820     0.6400 c3         1 GZG      -0.040800
     12 C15          2.5970     2.9980     0.6370 ca         1 GZG      -0.004300
     13 C16          2.0960     4.4070     0.6710 c3         1 GZG      -0.061800
     14 N1           1.2720    -0.4490     0.5710 na         1 GZG      -0.009000
     15 C19         -2.3600     2.5300    -0.9190 ca         1 GZG      -0.076300
     16 O1          -6.7060    -1.8910     0.9920 o          1 GZG      -0.740500
     17 C20         -2.3820     2.7950     0.4500 ca         1 GZG      -0.102500
     18 C17          1.6950     1.9530     0.6220 ca         1 GZG      -0.156000
     19 O           -6.6200    -4.0380     0.4100 o          1 GZG      -0.740500
     20 C           -6.1670    -2.8750     0.4480 c          1 GZG       0.719000
     21 C1          -4.8200    -2.6540    -0.2640 c3         1 GZG      -0.209400
     22 C2          -4.1880    -1.2840    -0.0820 c3         1 GZG      -0.054400
     23 N           -2.2010     0.1030    -0.6500 n3         1 GZG      -0.751600
     24 C24         -1.9690     3.5430    -1.7880 ca         1 GZG      -0.102500
     25 C23         -1.6190     4.7990    -1.3060 ca         1 GZG      -0.122000
     26 C22         -1.6490     5.0540     0.0570 ca         1 GZG      -0.128000
     27 C21         -2.0290     4.0450     0.9350 ca         1 GZG      -0.122000
     28 N2           4.0060    -0.8870     0.4810 nd         1 GZG      -0.529000
     29 N4           0.8930    -2.7060     0.3870 nd         1 GZG      -0.438400
     30 N3           2.7340    -4.1970     0.2890 ns         1 GZG      -0.500500
     31 H1          -0.3590     0.9500    -1.1630 h1         1 GZG       0.037700
     32 H2          -0.4430    -0.7730    -1.4620 h1         1 GZG       0.037700
     33 H3          -0.3920     0.5850     1.2880 h1         1 GZG       0.092200
     34 H4          -0.6140    -1.1360     1.0550 h1         1 GZG       0.092200
     35 H5           5.4810     1.2120     0.5470 ha         1 GZG       0.135000
     36 H6           4.8410     4.5370    -0.2240 hc         1 GZG       0.042367
     37 H7           4.8450     4.5020     1.5290 hc         1 GZG       0.042367
     38 H8           5.9950     3.5170     0.6300 hc         1 GZG       0.042367
     39 H9           2.4780     4.9800    -0.1760 hc         1 GZG       0.052033
     40 H10          1.0090     4.4520     0.6430 hc         1 GZG       0.052033
     41 H11          2.4330     4.9200     1.5750 hc         1 GZG       0.052033
     42 H12         -2.6740     2.0080     1.1360 ha         1 GZG       0.124500
     43 H13          0.6390     2.1890     0.6300 ha         1 GZG       0.145000
     44 H14         -3.8590     1.0970    -1.3860 h1         1 GZG       0.048700
     45 H15         -2.5140     1.0960    -2.5080 h1         1 GZG       0.048700
     46 H17         -4.1230    -3.4320     0.0660 hc         1 GZG       0.019700
     47 H18         -4.9710    -2.8490    -1.3330 hc         1 GZG       0.019700
     48 H19         -4.8830    -0.5150    -0.4280 hc         1 GZG       0.043700
     49 H20         -4.0110    -1.0820     0.9770 hc         1 GZG       0.043700
     50 H21         -2.1920    -1.9530    -0.4350 h1         1 GZG       0.032200
     51 H22         -3.0080    -1.4180    -1.8890 h1         1 GZG       0.032200
     52 H24         -1.9340     3.3490    -2.8540 ha         1 GZG       0.124500
     53 H25         -1.3170     5.5760    -1.9980 ha         1 GZG       0.106000
     54 H26         -1.3700     6.0300     0.4350 ha         1 GZG       0.102000
     55 H27         -2.0510     4.2340     2.0010 ha         1 GZG       0.106000
     56 H28          3.0350    -5.1630     0.2280 hn         1 GZG       0.335500
     57 O2           0.6130    -4.9420     0.2330 o          1 GZG      -0.495000
     58 O3           4.8910    -3.5050     0.3360 o          1 GZG      -0.506000
     59 C18         -2.7700     1.1750    -1.4390 c3         1 GZG       0.223100
     60 C3          -2.8620    -1.1800    -0.8220 c3         1 GZG       0.162800
@<TRIPOS>BOND
     1     1     2 1   
     2     1    23 1   
     3     1    31 1   
     4     1    32 1   
     5     2    14 1   
     6     2    33 1   
     7     2    34 1   
     8     3     4 ar  
     9     3    14 1   
    10     3    18 ar  
    11     4     9 ar  
    12     4    28 1   
    13     5     6 1   
    14     5     8 1   
    15     5    28 2   
    16     6    30 1   
    17     6    58 2   
    18     7    29 1   
    19     7    30 1   
    20     7    57 2   
    21     8    14 1   
    22     8    29 2   
    23     9    10 ar  
    24     9    35 1   
    25    10    11 1   
    26    10    12 ar  
    27    11    36 1   
    28    11    37 1   
    29    11    38 1   
    30    12    13 1   
    31    12    18 ar  
    32    13    39 1   
    33    13    40 1   
    34    13    41 1   
    35    15    17 ar  
    36    15    24 ar  
    37    15    59 1   
    38    16    20 1   
    39    17    27 ar  
    40    17    42 1   
    41    18    43 1   
    42    19    20 1   
    43    20    21 1   
    44    21    22 1   
    45    21    46 1   
    46    21    47 1   
    47    22    48 1   
    48    22    49 1   
    49    22    60 1   
    50    23    59 1   
    51    23    60 1   
    52    24    25 ar  
    53    24    52 1   
    54    25    26 ar  
    55    25    53 1   
    56    26    27 ar  
    57    26    54 1   
    58    27    55 1   
    59    30    56 1   
    60    44    59 1   
    61    45    59 1   
    62    50    60 1   
    63    51    60 1   
@<TRIPOS>SUBSTRUCTURE
     1 GZG         1 TEMP              0 ****  ****    0 ROOT
