@<TRIPOS>MOLECULE
GZH
   42    43     1     0     0
SMALL
bcc


@<TRIPOS>ATOM
      1 C7           4.6470     0.7320    -1.0570 ca         1 GZH      -0.144000
      2 C8           5.9530     0.2660    -1.0450 ca         1 GZH      -0.024000
      3 C9           6.6020     0.1170     0.1710 ca         1 GZH      -0.267500
      4 C1          -0.8020    -0.0800     0.1510 c          1 GZH       0.799100
      5 O1          -0.6500    -1.2920     0.1750 o          1 GZH      -0.617100
      6 N2           0.2350     0.7820     0.1240 ns         1 GZH      -0.596900
      7 N3          -2.0350     0.5350     0.1500 ns         1 GZH      -0.489100
      8 C6           3.9860     1.0420     0.1270 ca         1 GZH      -0.028300
      9 C10          5.9650     0.4200     1.3670 ca         1 GZH      -0.024000
     10 C11          4.6590     0.8770     1.3360 ca         1 GZH      -0.144000
     11 S12          8.2710    -0.4660     0.2120 sy         1 GZH       1.265200
     12 O13          8.4920    -1.2260     1.4340 o          1 GZH      -0.612300
     13 O14          8.5480    -1.1150    -1.0630 o          1 GZH      -0.612300
     14 N15          9.1010     0.9500     0.4060 n8         1 GZH      -0.891700
     15 C16          1.6040     0.3140     0.1270 c3         1 GZH       0.123000
     16 C17          2.5580     1.5040     0.1060 c3         1 GZH      -0.060100
     17 C18         -3.2870    -0.0570     0.1960 ca         1 GZH       0.094600
     18 C19         -3.5310    -1.4290     0.1140 ca         1 GZH      -0.121000
     19 C20         -4.8310    -1.9050     0.1650 ca         1 GZH      -0.099000
     20 C21         -5.9050    -1.0460     0.2950 ca         1 GZH       0.034400
     21 C22         -5.6810     0.3270     0.3730 ca         1 GZH      -0.160300
     22 C23         -4.3820     0.8030     0.3230 ca         1 GZH      -0.148000
     23 C24         -6.8220     1.2920     0.5170 c3         1 GZH       0.727200
     24 F25         -6.4070     2.5590     0.5700 f          1 GZH      -0.230300
     25 F26         -7.6770     1.2080    -0.5090 f          1 GZH      -0.230300
     26 F27         -7.5230     1.0670     1.6340 f          1 GZH      -0.230300
     27 CL1         -7.5000    -1.7140     0.3540 cl         1 GZH      -0.079400
     28 H1           4.1400     0.8580    -2.0060 ha         1 GZH       0.138000
     29 H2           6.4480     0.0280    -1.9760 ha         1 GZH       0.157000
     30 H3           0.0750     1.7760     0.1000 hn         1 GZH       0.312500
     31 H4          -2.0430     1.5440     0.1660 hn         1 GZH       0.314500
     32 H5           6.4720     0.3000     2.3160 ha         1 GZH       0.157000
     33 H6           4.1600     1.1130     2.2680 ha         1 GZH       0.138000
     34 H7          10.0430     0.7840     0.7500 hn         1 GZH       0.417800
     35 H8           9.1320     1.5040    -0.4440 hn         1 GZH       0.417800
     36 H9           1.7950    -0.2950     1.0140 h1         1 GZH       0.061200
     37 H10          1.7900    -0.3220    -0.7430 h1         1 GZH       0.061200
     38 H11          2.3630     2.1450     0.9700 hc         1 GZH       0.055700
     39 H12          2.3750     2.1040    -0.7890 hc         1 GZH       0.055700
     40 H13         -2.7250    -2.1340     0.0110 ha         1 GZH       0.179000
     41 H14         -5.0010    -2.9710     0.1000 ha         1 GZH       0.156000
     42 H15         -4.2020     1.8690     0.3830 ha         1 GZH       0.145000
@<TRIPOS>BOND
     1     1     2 ar  
     2     1     8 ar  
     3     1    28 1   
     4     2     3 ar  
     5     2    29 1   
     6     3     9 ar  
     7     3    11 1   
     8     4     5 2   
     9     4     6 1   
    10     4     7 1   
    11     6    15 1   
    12     6    30 1   
    13     7    17 1   
    14     7    31 1   
    15     8    10 ar  
    16     8    16 1   
    17     9    10 ar  
    18     9    32 1   
    19    10    33 1   
    20    11    12 2   
    21    11    13 2   
    22    11    14 1   
    23    14    34 1   
    24    14    35 1   
    25    15    16 1   
    26    15    36 1   
    27    15    37 1   
    28    16    38 1   
    29    16    39 1   
    30    17    18 ar  
    31    17    22 ar  
    32    18    19 ar  
    33    18    40 1   
    34    19    20 ar  
    35    19    41 1   
    36    20    21 ar  
    37    20    27 1   
    38    21    22 ar  
    39    21    23 1   
    40    22    42 1   
    41    23    24 1   
    42    23    25 1   
    43    23    26 1   
@<TRIPOS>SUBSTRUCTURE
     1 GZH         1 TEMP              0 ****  ****    0 ROOT
