@<TRIPOS>MOLECULE
GZH
   42    43     1     0     0
SMALL
No Charge or Current Charge


@<TRIPOS>ATOM
      1 C7           4.7360     0.7680    -0.9960 ca         1 GZH      -0.126000
      2 C8           6.0840     0.3680    -1.0130 ca         1 GZH      -0.006000
      3 C9           6.7710     0.1530     0.2010 ca         1 GZH      -0.267500
      4 C1          -0.8120    -0.2900     0.2340 c          1 GZH       0.665100
      5 O1          -0.6490    -1.5010     0.2150 o          1 GZH      -0.617100
      6 N2           0.2450     0.5880     0.2430 ns         1 GZH      -0.529900
      7 N3          -2.0380     0.3560     0.2490 ns         1 GZH      -0.163000
      8 C6           4.0630     0.9590     0.2250 ca         1 GZH      -0.028300
      9 C10          6.0980     0.3420     1.4260 ca         1 GZH      -0.006000
     10 C11          4.7510     0.7430     1.4340 ca         1 GZH      -0.126000
     11 S12          8.4920    -0.3570     0.1920 sy         1 GZH       1.123600
     12 O13          8.8260    -1.0630     1.4290 o          1 GZH      -0.541500
     13 O14          8.8610    -0.8540    -1.1320 o          1 GZH      -0.541500
     14 N15          9.2680     1.0800     0.2990 n8         1 GZH      -1.002100
     15 C16          1.6510     0.1770     0.2310 c3         1 GZH       0.123000
     16 C17          2.6030     1.3870     0.2390 c3         1 GZH      -0.060100
     17 C18         -3.3740    -0.1310     0.2470 ca         1 GZH       0.002000
     18 C19         -3.7030    -1.5020     0.2280 ca         1 GZH      -0.103000
     19 C20         -5.0490    -1.9030     0.2280 ca         1 GZH      -0.081000
     20 C21         -6.0800    -0.9510     0.2460 ca         1 GZH       0.126000
     21 C22         -5.7740     0.4310     0.2660 ca         1 GZH      -0.160300
     22 C23         -4.4120     0.8200     0.2660 ca         1 GZH      -0.130000
     23 C24         -6.8920     1.4890     0.2860 c3         1 GZH       0.363300
     24 F25         -6.4190     2.7570     0.3030 f          1 GZH      -0.109000
     25 F26         -7.6910     1.3970    -0.8010 f          1 GZH      -0.109000
     26 F27         -7.6820     1.3650     1.3770 f          1 GZH      -0.109000
     27 Cl1         -7.7430    -1.5420     0.2440 cl         1 GZH      -0.171000
     28 H1           4.2150     0.9280    -1.9370 ha         1 GZH       0.120000
     29 H2           6.5850     0.2240    -1.9690 ha         1 GZH       0.139000
     30 H3           0.0280     1.5760     0.2590 hn         1 GZH       0.312500
     31 H4          -1.9750     1.3640     0.2650 hn         1 GZH       0.148000
     32 H5           6.6140     0.1810     2.3710 ha         1 GZH       0.139000
     33 H6           4.2410     0.8840     2.3840 ha         1 GZH       0.120000
     34 H7           9.9160     1.0080    -0.4820 hn         1 GZH       0.473000
     35 H8           8.5620     1.7340    -0.0300 hn         1 GZH       0.473000
     36 H9           1.8470    -0.4480     1.1120 h1         1 GZH       0.061200
     37 H10          1.8370    -0.4280    -0.6670 h1         1 GZH       0.061200
     38 H11          2.3970     2.0000     1.1250 hc         1 GZH       0.055700
     39 H12          2.3870     2.0190    -0.6310 hc         1 GZH       0.055700
     40 H13         -2.9370    -2.2710     0.2140 ha         1 GZH       0.161000
     41 H14         -5.2950    -2.9620     0.2130 ha         1 GZH       0.138000
     42 H15         -4.1450     1.8750     0.2800 ha         1 GZH       0.127000
@<TRIPOS>BOND
     1     1     2 ar  
     2     1     8 ar  
     3     1    28 1   
     4     2     3 ar  
     5     2    29 1   
     6     3     9 ar  
     7     3    11 1   
     8     4     5 2   
     9     4     6 1   
    10     4     7 1   
    11     6    15 1   
    12     6    30 1   
    13     7    17 1   
    14     7    31 1   
    15     8    10 ar  
    16     8    16 1   
    17     9    10 ar  
    18     9    32 1   
    19    10    33 1   
    20    11    12 2   
    21    11    13 2   
    22    11    14 1   
    23    14    34 1   
    24    14    35 1   
    25    15    16 1   
    26    15    36 1   
    27    15    37 1   
    28    16    38 1   
    29    16    39 1   
    30    17    18 ar  
    31    17    22 ar  
    32    18    19 ar  
    33    18    40 1   
    34    19    20 ar  
    35    19    41 1   
    36    20    21 ar  
    37    20    27 1   
    38    21    22 ar  
    39    21    23 1   
    40    22    42 1   
    41    23    24 1   
    42    23    25 1   
    43    23    26 1   
@<TRIPOS>SUBSTRUCTURE
     1 GZH         1 TEMP              0 ****  ****    0 ROOT
