@<TRIPOS>MOLECULE
GZI
   69    72     1     0     0
SMALL
No Charge or Current Charge


@<TRIPOS>ATOM
      1 C1          18.4840   -13.2270    12.8240 ca         1 GZI      -0.072300
      2 C2          18.6900   -12.6140    11.5530 ca         1 GZI      -0.054300
      3 C3          18.6800   -13.4540    10.4190 ca         1 GZI       0.089000
      4 C7          17.7380   -16.9780    15.7440 c3         1 GZI       0.150800
      5 C9          17.2600   -20.3540    17.5220 c3         1 GZI      -0.108400
      6 C10         15.9510   -20.9380    16.9490 c3         1 GZI       0.180600
      7 C11         18.9330   -11.0990    11.3750 c6         1 GZI       0.304000
      8 C12         20.1640   -10.6710    12.1590 cc         1 GZI      -0.047300
      9 C13         20.2740    -9.5300    12.9350 cd         1 GZI      -0.133400
     10 C14         21.5900    -9.4630    13.5190 ca         1 GZI      -0.084800
     11 C15         22.1860    -8.5250    14.3720 ca         1 GZI      -0.062000
     12 C16         23.5200    -8.7610    14.7680 ca         1 GZI      -0.152000
     13 C19         22.2560   -10.5720    13.0730 ca         1 GZI      -0.048200
     14 C20         19.1040    -8.5880    13.0580 c6         1 GZI       0.003800
     15 C21         18.1070    -8.7780    11.8750 c6         1 GZI       0.193500
     16 C24         14.9930   -11.4960    12.5030 c3         1 GZI      -0.057100
     17 C25         14.5460   -11.6840    10.0000 c          1 GZI       0.715000
     18 O2          14.4980   -12.7000     9.3230 o          1 GZI      -0.734500
     19 C23         15.6290   -11.5920    11.0930 c3         1 GZI      -0.190700
     20 N3          17.7400   -10.2250    11.6950 n3         1 GZI      -0.741600
     21 C26         18.6420    -8.1090    10.5720 c3         1 GZI      -0.123100
     22 C18         23.5800   -10.8320    13.4490 ca         1 GZI      -0.130000
     23 C17         24.2140    -9.9090    14.3090 ca         1 GZI      -0.106000
     24 N2          21.4190   -11.3090    12.2500 na         1 GZI      -0.215700
     25 F1          18.8680   -12.9530     9.1740 f          1 GZI      -0.177000
     26 C4          18.4620   -14.8330    10.5790 ca         1 GZI       0.341900
     27 N           18.2720   -15.4220    11.7800 nb         1 GZI      -0.735000
     28 C5          18.2840   -14.6340    12.8780 ca         1 GZI       0.565300
     29 C           18.4980   -12.4200    14.1310 c3         1 GZI      -0.041800
     30 O           18.1100   -15.2290    14.1090 os         1 GZI      -0.468300
     31 C6          17.8980   -16.6500    14.2390 c3         1 GZI       0.171600
     32 N1          17.5080   -18.4260    15.9730 n7         1 GZI      -0.870400
     33 F           14.8800   -20.4320    17.6100 f          1 GZI      -0.277000
     34 H1          18.6470   -16.6520    16.2670 h1         1 GZI       0.042700
     35 H2          16.8980   -16.3920    16.1430 h1         1 GZI       0.042700
     36 H3          18.2950   -18.5080    17.9380 h1         1 GZI       0.035200
     37 H4          16.5340   -18.3350    17.8640 h1         1 GZI       0.035200
     38 H5          18.1120   -20.8360    17.0290 hc         1 GZI       0.053200
     39 H6          17.3240   -20.6190    18.5840 hc         1 GZI       0.053200
     40 H7          15.8540   -20.7010    15.8820 h1         1 GZI       0.042700
     41 H8          15.9480   -22.0290    17.0670 h1         1 GZI       0.042700
     42 H9          19.1860   -10.9230    10.3200 h1         1 GZI       0.046700
     43 H10         21.6400    -7.6500    14.7160 ha         1 GZI       0.110000
     44 H11         24.0190    -8.0570    15.4300 ha         1 GZI       0.100000
     45 H12         19.4440    -7.5440    13.1040 hc         1 GZI       0.045200
     46 H13         18.5790    -8.7800    14.0040 hc         1 GZI       0.045200
     47 H14         17.2010    -8.2170    12.1510 h1         1 GZI       0.068700
     48 H17         15.7620   -11.5250    13.2830 hc         1 GZI       0.013700
     49 H18         14.4260   -10.5650    12.6160 hc         1 GZI       0.013700
     50 H19         14.3110   -12.3380    12.6720 hc         1 GZI       0.013700
     51 H21         16.1920   -12.5270    11.0560 hc         1 GZI       0.035700
     52 H23         18.8290    -7.0410    10.7330 hc         1 GZI       0.034367
     53 H24         19.5840    -8.5570    10.2350 hc         1 GZI       0.034367
     54 H25         17.9200    -8.1880     9.7510 hc         1 GZI       0.034367
     55 H26         24.1030   -11.7160    13.0920 ha         1 GZI       0.107000
     56 H27         25.2420   -10.0800    14.6210 ha         1 GZI       0.099000
     57 H28         21.6740   -12.1730    11.7850 hn         1 GZI       0.351000
     58 H29         18.4470   -15.4920     9.7110 h4         1 GZI       0.031100
     59 H30         17.8700   -12.8750    14.9050 hc         1 GZI       0.055033
     60 H31         19.5160   -12.3490    14.5330 hc         1 GZI       0.055033
     61 H32         18.1200   -11.4020    14.0040 hc         1 GZI       0.055033
     62 H33         16.9920   -16.9590    13.7000 h1         1 GZI       0.052700
     63 H34         18.7520   -17.2110    13.8350 h1         1 GZI       0.052700
     64 H35         16.6370   -18.6920    15.4980 hn         1 GZI       0.412000
     65 C22         16.5740   -10.4070    10.7790 c3         1 GZI       0.184800
     66 H15         16.9300   -10.5070     9.7440 h1         1 GZI       0.042200
     67 H16         15.9540    -9.5000    10.8000 h1         1 GZI       0.042200
     68 O1          13.7820   -10.7420     9.8460 o          1 GZI      -0.734500
     69 C8          17.3960   -18.8230    17.3890 c3         1 GZI       0.167800
@<TRIPOS>BOND
     1     1     2 ar  
     2     1    28 ar  
     3     1    29 1   
     4     2     3 ar  
     5     2     7 1   
     6     3    25 1   
     7     3    26 ar  
     8     4    31 1   
     9     4    32 1   
    10     4    34 1   
    11     4    35 1   
    12     5     6 1   
    13     5    38 1   
    14     5    39 1   
    15     5    69 1   
    16     6    33 1   
    17     6    40 1   
    18     6    41 1   
    19     7     8 1   
    20     7    20 1   
    21     7    42 1   
    22     8     9 2   
    23     8    24 1   
    24     9    10 1   
    25     9    14 1   
    26    10    11 ar  
    27    10    13 ar  
    28    11    12 ar  
    29    11    43 1   
    30    12    23 ar  
    31    12    44 1   
    32    13    22 ar  
    33    13    24 1   
    34    14    15 1   
    35    14    45 1   
    36    14    46 1   
    37    15    20 1   
    38    15    21 1   
    39    15    47 1   
    40    16    19 1   
    41    16    48 1   
    42    16    49 1   
    43    16    50 1   
    44    17    18 1   
    45    17    19 1   
    46    17    68 1   
    47    19    51 1   
    48    19    65 1   
    49    20    65 1   
    50    21    52 1   
    51    21    53 1   
    52    21    54 1   
    53    22    23 ar  
    54    22    55 1   
    55    23    56 1   
    56    24    57 1   
    57    26    27 ar  
    58    26    58 1   
    59    27    28 ar  
    60    28    30 1   
    61    29    59 1   
    62    29    60 1   
    63    29    61 1   
    64    30    31 1   
    65    31    62 1   
    66    31    63 1   
    67    32    64 1   
    68    32    69 1   
    69    36    69 1   
    70    37    69 1   
    71    65    66 1   
    72    65    67 1   
@<TRIPOS>SUBSTRUCTURE
     1 GZI         1 TEMP              0 ****  ****    0 ROOT
