@<TRIPOS>MOLECULE
GZI
   69    72     1     0     0
SMALL
bcc


@<TRIPOS>ATOM
      1 C1          18.4710   -13.2240    12.7990 ca         1 GZI      -0.137600
      2 C2          18.7120   -12.6630    11.5490 ca         1 GZI      -0.054300
      3 C3          18.7170   -13.5280    10.4550 ca         1 GZI      -0.011400
      4 C7          17.7190   -16.8740    15.6410 c3         1 GZI       0.150800
      5 C9          17.4260   -20.2340    17.3290 c3         1 GZI      -0.108400
      6 C10         16.2540   -20.9290    16.6800 c3         1 GZI       0.161900
      7 C11         18.9950   -11.1840    11.3390 c6         1 GZI       0.304000
      8 C12         20.1370   -10.7300    12.1910 cc         1 GZI      -0.047300
      9 C13         20.1740    -9.5610    12.8860 cd         1 GZI      -0.133400
     10 C14         21.4390    -9.5210    13.5500 ca         1 GZI      -0.084800
     11 C15         22.0630    -8.6070    14.4060 ca         1 GZI      -0.080000
     12 C16         23.3280    -8.8940    14.8840 ca         1 GZI      -0.170000
     13 C19         22.1190   -10.7120    13.2010 ca         1 GZI      -0.048200
     14 C20         19.0250    -8.6140    12.8810 c6         1 GZI       0.003800
     15 C21         18.1250    -8.9200    11.6810 c6         1 GZI       0.193500
     16 C24         15.0330   -10.6470    12.7120 c3         1 GZI      -0.057100
     17 C25         14.4760   -11.8770    10.5680 c          1 GZI       0.925600
     18 O2          14.2580   -13.0970    10.4190 o          1 GZI      -0.839800
     19 C23         15.5890   -11.4710    11.5560 c3         1 GZI      -0.190700
     20 N3          17.8310   -10.3570    11.6330 n3         1 GZI      -0.741600
     21 C26         18.7050    -8.3510    10.3840 c3         1 GZI      -0.123100
     22 C18         23.3940   -11.0030    13.6800 ca         1 GZI      -0.148000
     23 C17         23.9860   -10.0810    14.5250 ca         1 GZI      -0.124000
     24 N2          21.3010   -11.4250    12.3700 na         1 GZI      -0.165400
     25 F1          18.9260   -13.0530     9.2140 f          1 GZI      -0.141900
     26 C4          18.5040   -14.8750    10.6040 ca         1 GZI       0.407200
     27 N           18.2990   -15.4120    11.8020 nb         1 GZI      -0.735000
     28 C5          18.2890   -14.6210    12.8490 ca         1 GZI       0.630600
     29 C           18.3960   -12.4330    14.0690 c3         1 GZI      -0.041800
     30 O           18.0990   -15.1520    14.0630 os         1 GZI      -0.445100
     31 C6          17.9140   -16.5560    14.1710 c3         1 GZI       0.148400
     32 N1          17.5310   -18.3020    15.7950 n7         1 GZI      -0.815200
     33 F           15.0490   -20.4500    17.2000 f          1 GZI      -0.258300
     34 H1          18.6140   -16.5800    16.1950 h1         1 GZI       0.042700
     35 H2          16.8850   -16.2790    16.0430 h1         1 GZI       0.042700
     36 H3          18.3300   -18.3410    17.7020 h1         1 GZI       0.035200
     37 H4          16.5810   -18.2810    17.7060 h1         1 GZI       0.035200
     38 H5          18.3340   -20.6530    16.8860 hc         1 GZI       0.053200
     39 H6          17.4530   -20.4870    18.3920 hc         1 GZI       0.053200
     40 H7          16.2350   -20.7730    15.5990 h1         1 GZI       0.042700
     41 H8          16.2940   -22.0040    16.8640 h1         1 GZI       0.042700
     42 H9          19.3050   -11.0590    10.2890 h1         1 GZI       0.046700
     43 H10         21.5640    -7.6880    14.6890 ha         1 GZI       0.128000
     44 H11         23.8220    -8.1960    15.5480 ha         1 GZI       0.118000
     45 H12         19.3660    -7.5760    12.8290 hc         1 GZI       0.045200
     46 H13         18.4440    -8.7030    13.8050 hc         1 GZI       0.045200
     47 H14         17.1640    -8.4330    11.8610 h1         1 GZI       0.068700
     48 H17         15.8260   -10.3660    13.4070 hc         1 GZI       0.013700
     49 H18         14.5620    -9.7310    12.3500 hc         1 GZI       0.013700
     50 H19         14.2840   -11.2040    13.2770 hc         1 GZI       0.013700
     51 H21         16.0360   -12.3810    11.9630 hc         1 GZI       0.035700
     52 H23         18.7470    -7.2630    10.4370 hc         1 GZI       0.034367
     53 H24         19.7180    -8.7090    10.1930 hc         1 GZI       0.034367
     54 H25         18.0880    -8.6150     9.5230 hc         1 GZI       0.034367
     55 H26         23.9040   -11.9180    13.4030 ha         1 GZI       0.125000
     56 H27         24.9750   -10.2790    14.9160 ha         1 GZI       0.117000
     57 H28         21.5220   -12.3210    11.9660 hn         1 GZI       0.300700
     58 H29         18.5040   -15.5370     9.7450 h4         1 GZI       0.031100
     59 H30         17.5740   -12.7830    14.6920 hc         1 GZI       0.055033
     60 H31         19.3120   -12.5370    14.6550 hc         1 GZI       0.055033
     61 H32         18.2380   -11.3780    13.8720 hc         1 GZI       0.055033
     62 H33         17.0420   -16.8730    13.5890 h1         1 GZI       0.052700
     63 H34         18.7830   -17.0940    13.7820 h1         1 GZI       0.052700
     64 H35         16.6800   -18.5660    15.3130 hn         1 GZI       0.356800
     65 C22         16.6720   -10.6880    10.8070 c3         1 GZI       0.184800
     66 H15         16.9790   -11.2400     9.9100 h1         1 GZI       0.042200
     67 H16         16.2210    -9.7640    10.4360 h1         1 GZI       0.042200
     68 O1          13.8840   -10.9410     9.9870 o          1 GZI      -0.839800
     69 C8          17.4450   -18.7180    17.1830 c3         1 GZI       0.167800
@<TRIPOS>BOND
     1     1     2 ar  
     2     1    28 ar  
     3     1    29 1   
     4     2     3 ar  
     5     2     7 1   
     6     3    25 1   
     7     3    26 ar  
     8     4    31 1   
     9     4    32 1   
    10     4    34 1   
    11     4    35 1   
    12     5     6 1   
    13     5    38 1   
    14     5    39 1   
    15     5    69 1   
    16     6    33 1   
    17     6    40 1   
    18     6    41 1   
    19     7     8 1   
    20     7    20 1   
    21     7    42 1   
    22     8     9 2   
    23     8    24 1   
    24     9    10 1   
    25     9    14 1   
    26    10    11 ar  
    27    10    13 ar  
    28    11    12 ar  
    29    11    43 1   
    30    12    23 ar  
    31    12    44 1   
    32    13    22 ar  
    33    13    24 1   
    34    14    15 1   
    35    14    45 1   
    36    14    46 1   
    37    15    20 1   
    38    15    21 1   
    39    15    47 1   
    40    16    19 1   
    41    16    48 1   
    42    16    49 1   
    43    16    50 1   
    44    17    18 1   
    45    17    19 1   
    46    17    68 1   
    47    19    51 1   
    48    19    65 1   
    49    20    65 1   
    50    21    52 1   
    51    21    53 1   
    52    21    54 1   
    53    22    23 ar  
    54    22    55 1   
    55    23    56 1   
    56    24    57 1   
    57    26    27 ar  
    58    26    58 1   
    59    27    28 ar  
    60    28    30 1   
    61    29    59 1   
    62    29    60 1   
    63    29    61 1   
    64    30    31 1   
    65    31    62 1   
    66    31    63 1   
    67    32    64 1   
    68    32    69 1   
    69    36    69 1   
    70    37    69 1   
    71    65    66 1   
    72    65    67 1   
@<TRIPOS>SUBSTRUCTURE
     1 GZI         1 TEMP              0 ****  ****    0 ROOT
