@<TRIPOS>MOLECULE
GZJ
   20    19     1     0     0
SMALL
No Charge or Current Charge


@<TRIPOS>ATOM
      1 C2           2.9120     1.5220     0.2460 c3         1 GZJ      -0.178100
      2 N            0.6590     0.5800     0.1620 ns         1 GZJ      -0.456900
      3 O1           2.2320    -0.1970    -1.3060 o          1 GZJ      -0.661100
      4 C           -1.8000     0.5650    -0.2830 c          1 GZJ       0.714000
      5 CA          -0.4850    -0.2740    -0.2450 c3         1 GZJ      -0.044300
      6 CB          -0.6400    -1.5190     0.6690 c3         1 GZJ      -0.071400
      7 CG           0.5580    -2.4900     0.6370 c3         1 GZJ      -0.083100
      8 C1           1.9230     0.5470    -0.3850 c          1 GZJ       0.589100
      9 H1           2.9580     1.3370     1.3250 hc         1 GZJ       0.042700
     10 H2           3.9060     1.4760    -0.2140 hc         1 GZJ       0.042700
     11 H3           2.4950     2.5350     0.2030 hc         1 GZJ       0.042700
     12 H4           0.5050     1.2550     0.9040 hn         1 GZJ       0.323500
     13 H5          -0.3090    -0.6240    -1.2700 h1         1 GZJ       0.063700
     14 H6          -0.8100    -1.1940     1.7030 hc         1 GZJ       0.040700
     15 H7          -1.5380    -2.0680     0.3620 hc         1 GZJ       0.040700
     16 H8           0.7580    -2.8260    -0.3870 hc         1 GZJ       0.017367
     17 H9           1.4630    -2.0140     1.0320 hc         1 GZJ       0.017367
     18 H10          0.3460    -3.3740     1.2510 hc         1 GZJ       0.017367
     19 O           -2.0700     1.2730     0.6790 o          1 GZJ      -0.728000
     20 OXT         -2.4620     0.5540    -1.3120 o          1 GZJ      -0.728000
@<TRIPOS>BOND
     1     1     8 1   
     2     1     9 1   
     3     1    10 1   
     4     1    11 1   
     5     2     5 1   
     6     2     8 1   
     7     2    12 1   
     8     3     8 2   
     9     4     5 1   
    10     4    19 1   
    11     4    20 1   
    12     5     6 1   
    13     5    13 1   
    14     6     7 1   
    15     6    14 1   
    16     6    15 1   
    17     7    16 1   
    18     7    17 1   
    19     7    18 1   
@<TRIPOS>SUBSTRUCTURE
     1 GZJ         1 TEMP              0 ****  ****    0 ROOT
