@<TRIPOS>MOLECULE
GZJ
   20    19     1     0     0
SMALL
abcg2


@<TRIPOS>ATOM
      1 C2           2.8370     1.5660     0.2870 c3         1 GZJ      -0.178100
      2 N            0.6750     0.5100     0.2680 ns         1 GZJ      -0.456900
      3 O1           2.1890    -0.0940    -1.3040 o          1 GZJ      -0.661100
      4 C           -1.7520     0.5830    -0.1280 c          1 GZJ       0.714000
      5 CA          -0.4520    -0.2550    -0.2140 c3         1 GZJ      -0.044300
      6 CB          -0.6340    -1.5670     0.5590 c3         1 GZJ      -0.071400
      7 CG           0.5710    -2.4940     0.5210 c3         1 GZJ      -0.083100
      8 C1           1.8740     0.5770    -0.3260 c          1 GZJ       0.589100
      9 H1           2.4890     1.9880     1.2280 hc         1 GZJ       0.042700
     10 H2           3.7990     1.0840     0.4580 hc         1 GZJ       0.042700
     11 H3           3.0040     2.3860    -0.4120 hc         1 GZJ       0.042700
     12 H4           0.4610     1.1780     0.9920 hn         1 GZJ       0.323500
     13 H5          -0.2650    -0.5000    -1.2630 h1         1 GZJ       0.063700
     14 H6          -0.8830    -1.3370     1.6010 hc         1 GZJ       0.040700
     15 H7          -1.5030    -2.0800     0.1420 hc         1 GZJ       0.040700
     16 H8           0.8520    -2.7430    -0.5030 hc         1 GZJ       0.017367
     17 H9           1.4400    -2.0490     1.0040 hc         1 GZJ       0.017367
     18 H10          0.3510    -3.4280     1.0420 hc         1 GZJ       0.017367
     19 O           -1.7040     1.6560     0.5030 o          1 GZJ      -0.728000
     20 OXT         -2.7470     0.0820    -0.6820 o          1 GZJ      -0.728000
@<TRIPOS>BOND
     1     1     8 1   
     2     1     9 1   
     3     1    10 1   
     4     1    11 1   
     5     2     5 1   
     6     2     8 1   
     7     2    12 1   
     8     3     8 2   
     9     4     5 1   
    10     4    19 1   
    11     4    20 1   
    12     5     6 1   
    13     5    13 1   
    14     6     7 1   
    15     6    14 1   
    16     6    15 1   
    17     7    16 1   
    18     7    17 1   
    19     7    18 1   
@<TRIPOS>SUBSTRUCTURE
     1 GZJ         1 TEMP              0 ****  ****    0 ROOT
