@<TRIPOS>MOLECULE
GZK
   40    43     1     0     0
SMALL
No Charge or Current Charge


@<TRIPOS>ATOM
      1 CAL         -5.1030     0.6820    -0.8370 c5         1 GZK      -0.081400
      2 CAM         -6.0410    -0.5020    -1.2320 c5         1 GZK      -0.292400
      3 SAN         -5.9150    -1.7210     0.1580 s6         1 GZK       1.057000
      4 OAO         -7.0700    -1.5940     1.0540 o          1 GZK      -0.505000
      5 OAZ         -5.5300    -3.0360    -0.3690 o          1 GZK      -0.505000
      6 CAY         -4.4510    -0.8840     0.9010 c5         1 GZK      -0.306400
      7 CAK         -3.8420    -0.0290    -0.2530 c5         1 GZK       0.122300
      8 NAG         -2.7730     0.8890     0.1690 na         1 GZK       0.137800
      9 NAH         -2.9700     1.7910     1.2090 nc         1 GZK      -0.511800
     10 CAI         -1.8060     2.4210     1.2760 cd         1 GZK       0.327900
     11 CAJ         -0.8870     1.9550     0.3200 cd         1 GZK      -0.326600
     12 CAB          0.4790     2.3650     0.0530 c          1 GZK       0.616600
     13 OAA          1.0490     3.2440     0.6840 o          1 GZK      -0.517000
     14 CAF         -1.4970     0.9850    -0.3830 cc         1 GZK       0.141400
     15 NAE         -0.9050     0.2930    -1.4070 nc         1 GZK      -0.631100
     16 CAD          0.3570     0.6560    -1.6710 cd         1 GZK       0.528800
     17 NAC          1.0640     1.6490    -0.9980 n          1 GZK      -0.339300
     18 CAP          2.4600     1.9390    -1.3820 c3         1 GZK       0.143300
     19 CAQ          3.4630     1.0430    -0.6680 ca         1 GZK      -0.101300
     20 CAR          3.8630    -0.1790    -1.2460 ca         1 GZK      -0.087000
     21 CAS          4.7820    -1.0120    -0.5830 ca         1 GZK       0.115000
     22 Cl1          5.2570    -2.5340    -1.3400 cl         1 GZK      -0.168000
     23 CAW          5.3080    -0.6250     0.6670 ca         1 GZK       0.128000
     24 Cl2          6.4620    -1.6460     1.5260 cl         1 GZK      -0.165000
     25 CAV          4.9110     0.5920     1.2450 ca         1 GZK      -0.096000
     26 CAU          3.9920     1.4240     0.5810 ca         1 GZK      -0.064000
     27 H1          -4.8540     1.3080    -1.7030 hc         1 GZK       0.085700
     28 H2          -5.5700     1.3430    -0.0950 hc         1 GZK       0.085700
     29 H3          -7.0950    -0.2190    -1.3400 h1         1 GZK       0.112700
     30 H4          -5.7040    -1.0290    -2.1330 h1         1 GZK       0.112700
     31 H5          -4.8280    -0.2750     1.7290 h1         1 GZK       0.125200
     32 H6          -3.7770    -1.6590     1.2810 h1         1 GZK       0.125200
     33 H7          -3.4190    -0.6940    -1.0190 h1         1 GZK       0.092700
     34 H8          -1.6640     3.1990     2.0170 h4         1 GZK       0.057100
     35 H9           0.8890     0.1480    -2.4660 h5         1 GZK       0.051800
     36 H10          2.5660     1.8070    -2.4670 h1         1 GZK       0.069200
     37 H11          2.6960     2.9910    -1.1760 h1         1 GZK       0.069200
     38 H12          3.4640    -0.4870    -2.2090 ha         1 GZK       0.126000
     39 H13          5.3150     0.8910     2.2090 ha         1 GZK       0.137000
     40 H14          3.6910     2.3630     1.0400 ha         1 GZK       0.130000
@<TRIPOS>BOND
     1     1     2 1   
     2     1     7 1   
     3     1    27 1   
     4     1    28 1   
     5     2     3 1   
     6     2    29 1   
     7     2    30 1   
     8     3     4 2   
     9     3     5 2   
    10     3     6 1   
    11     6     7 1   
    12     6    31 1   
    13     6    32 1   
    14     7     8 1   
    15     7    33 1   
    16     8     9 1   
    17     8    14 1   
    18     9    10 2   
    19    10    11 1   
    20    10    34 1   
    21    11    12 1   
    22    11    14 2   
    23    12    13 2   
    24    12    17 1   
    25    14    15 1   
    26    15    16 2   
    27    16    17 1   
    28    16    35 1   
    29    17    18 1   
    30    18    19 1   
    31    18    36 1   
    32    18    37 1   
    33    19    20 ar  
    34    19    26 ar  
    35    20    21 ar  
    36    20    38 1   
    37    21    22 1   
    38    21    23 ar  
    39    23    24 1   
    40    23    25 ar  
    41    25    26 ar  
    42    25    39 1   
    43    26    40 1   
@<TRIPOS>SUBSTRUCTURE
     1 GZK         1 TEMP              0 ****  ****    0 ROOT
