@<TRIPOS>MOLECULE
GZK
   40    43     1     0     0
SMALL
abcg2


@<TRIPOS>ATOM
      1 CAL         -5.0630     0.7940    -0.6670 c5         1 GZK      -0.081400
      2 CAM         -6.1410    -0.1820    -1.1040 c5         1 GZK      -0.292400
      3 SAN         -5.9060    -1.5910    -0.0070 s6         1 GZK       1.057000
      4 OAO         -6.6330    -1.3460     1.2370 o          1 GZK      -0.505000
      5 OAZ         -6.1280    -2.8530    -0.7070 o          1 GZK      -0.505000
      6 CAY         -4.1370    -1.3040     0.2830 c5         1 GZK      -0.306400
      7 CAK         -3.7900    -0.0470    -0.5260 c5         1 GZK       0.122300
      8 NAG         -2.7030     0.6900     0.0660 na         1 GZK       0.137800
      9 NAH         -2.8360     1.2680     1.2710 nc         1 GZK      -0.511800
     10 CAI         -1.6960     1.8590     1.5350 cd         1 GZK       0.327900
     11 CAJ         -0.7850     1.6640     0.4770 cd         1 GZK      -0.326600
     12 CAB          0.5600     2.0540     0.1960 c          1 GZK       0.616600
     13 OAA          1.2980     2.7320     0.8830 o          1 GZK      -0.517000
     14 CAF         -1.4800     0.9010    -0.4480 cc         1 GZK       0.141400
     15 NAE         -1.0180     0.4590    -1.6360 nc         1 GZK      -0.631100
     16 CAD          0.2020     0.8120    -1.8690 cd         1 GZK       0.528800
     17 NAC          0.9920     1.5520    -1.0480 n          1 GZK      -0.339300
     18 CAP          2.3650     1.8480    -1.4470 c3         1 GZK       0.143300
     19 CAQ          3.3740     1.1070    -0.6110 ca         1 GZK      -0.101300
     20 CAR          3.3560    -0.2810    -0.5700 ca         1 GZK      -0.087000
     21 CAS          4.2910    -0.9740     0.1820 ca         1 GZK       0.115000
     22 CL1          4.2410    -2.6960     0.2130 cl         1 GZK      -0.168000
     23 CAW          5.2610    -0.2810     0.8980 ca         1 GZK       0.128000
     24 CL2          6.4340    -1.1250     1.8340 cl         1 GZK      -0.165000
     25 CAV          5.2840     1.1050     0.8580 ca         1 GZK      -0.096000
     26 CAU          4.3420     1.7920     0.1110 ca         1 GZK      -0.064000
     27 H1          -4.9290     1.5860    -1.4020 hc         1 GZK       0.085700
     28 H2          -5.3250     1.2520     0.2880 hc         1 GZK       0.085700
     29 H3          -7.1600     0.1850    -0.9860 h1         1 GZK       0.112700
     30 H4          -5.9890    -0.5240    -2.1290 h1         1 GZK       0.112700
     31 H5          -4.0050    -1.1470     1.3530 h1         1 GZK       0.125200
     32 H6          -3.5770    -2.1820    -0.0320 h1         1 GZK       0.125200
     33 H7          -3.4530    -0.3450    -1.5190 h1         1 GZK       0.092700
     34 H8          -1.5560     2.3980     2.4580 h4         1 GZK       0.057100
     35 H9           0.6630     0.5050    -2.7990 h5         1 GZK       0.051800
     36 H10          2.4670     1.5680    -2.4960 h1         1 GZK       0.069200
     37 H11          2.5320     2.9220    -1.3860 h1         1 GZK       0.069200
     38 H12          2.6140    -0.8410    -1.1250 ha         1 GZK       0.126000
     39 H13          6.0370     1.6440     1.4170 ha         1 GZK       0.137000
     40 H14          4.3640     2.8730     0.0960 ha         1 GZK       0.130000
@<TRIPOS>BOND
     1     1     2 1   
     2     1     7 1   
     3     1    27 1   
     4     1    28 1   
     5     2     3 1   
     6     2    29 1   
     7     2    30 1   
     8     3     4 2   
     9     3     5 2   
    10     3     6 1   
    11     6     7 1   
    12     6    31 1   
    13     6    32 1   
    14     7     8 1   
    15     7    33 1   
    16     8     9 1   
    17     8    14 1   
    18     9    10 2   
    19    10    11 1   
    20    10    34 1   
    21    11    12 1   
    22    11    14 2   
    23    12    13 2   
    24    12    17 1   
    25    14    15 1   
    26    15    16 2   
    27    16    17 1   
    28    16    35 1   
    29    17    18 1   
    30    18    19 1   
    31    18    36 1   
    32    18    37 1   
    33    19    20 ar  
    34    19    26 ar  
    35    20    21 ar  
    36    20    38 1   
    37    21    22 1   
    38    21    23 ar  
    39    23    24 1   
    40    23    25 ar  
    41    25    26 ar  
    42    25    39 1   
    43    26    40 1   
@<TRIPOS>SUBSTRUCTURE
     1 GZK         1 TEMP              0 ****  ****    0 ROOT
