@<TRIPOS>MOLECULE
GZL
   24    24     1     0     0
SMALL
No Charge or Current Charge


@<TRIPOS>ATOM
      1 C1           2.6650     0.7810     0.2100 c3         1 GZL       0.136600
      2 C2           1.5570    -0.1940    -0.2940 c3         1 GZL       0.175300
      3 C3           0.1630     0.5020    -0.4380 c5         1 GZL       0.130300
      4 C4          -1.0190    -0.4170    -0.9320 c5         1 GZL       0.150300
      5 C5          -1.7520    -0.7060     0.4250 c5         1 GZL       0.106300
      6 O1           3.9770     0.1970     0.1020 oh         1 GZL      -0.648000
      7 O2           1.4810    -1.3610     0.5580 oh         1 GZL      -0.700000
      8 O3          -0.2610     1.0590     0.8430 os         1 GZL      -0.484000
      9 O4          -1.8790     0.3000    -1.8430 oh         1 GZL      -0.699000
     10 C6          -1.6390     0.7250     1.0650 c5         1 GZL       0.348300
     11 O5          -1.0810    -1.7210     1.2040 oh         1 GZL      -0.705000
     12 O6          -2.4440     1.6810     0.3950 oh         1 GZL      -0.720000
     13 H11          2.6220     1.7020    -0.3870 h1         1 GZL       0.025200
     14 H12          2.4560     1.0580     1.2520 h1         1 GZL       0.025200
     15 H1           4.6080     0.8280     0.5130 ho         1 GZL       0.439000
     16 H21          1.8480    -0.5050    -1.3080 h1         1 GZL       0.083700
     17 H31          0.2940     1.3370    -1.1410 h1         1 GZL       0.077700
     18 H2           0.5270    -1.4410     0.8500 ho         1 GZL       0.513000
     19 H41         -0.6540    -1.3470    -1.3930 h1         1 GZL       0.078700
     20 H4          -1.6870    -0.0320    -2.7550 ho         1 GZL       0.510000
     21 H51         -2.8010    -0.9880     0.2540 h1         1 GZL       0.067700
     22 H61         -1.8680     0.7160     2.1400 h2         1 GZL       0.062700
     23 H5          -1.7220    -2.0370     1.8870 ho         1 GZL       0.509000
     24 H6          -2.3500     1.4030    -0.5560 ho         1 GZL       0.517000
@<TRIPOS>BOND
     1     1     2 1   
     2     1     6 1   
     3     1    13 1   
     4     1    14 1   
     5     2     3 1   
     6     2     7 1   
     7     2    16 1   
     8     3     4 1   
     9     3     8 1   
    10     3    17 1   
    11     4     5 1   
    12     4     9 1   
    13     4    19 1   
    14     5    10 1   
    15     5    11 1   
    16     5    21 1   
    17     6    15 1   
    18     7    18 1   
    19     8    10 1   
    20     9    20 1   
    21    10    12 1   
    22    10    22 1   
    23    11    23 1   
    24    12    24 1   
@<TRIPOS>SUBSTRUCTURE
     1 GZL         1 TEMP              0 ****  ****    0 ROOT
