@<TRIPOS>MOLECULE
GZL
   24    24     1     0     0
SMALL
abcg2


@<TRIPOS>ATOM
      1 C1           2.6050     0.8040     0.1040 c3         1 GZL       0.136600
      2 C2           1.5850    -0.2350    -0.3370 c3         1 GZL       0.175300
      3 C3           0.2010     0.3840    -0.4810 c5         1 GZL       0.130300
      4 C4          -0.8950    -0.5940    -0.9500 c5         1 GZL       0.150300
      5 C5          -1.8610    -0.6460     0.2430 c5         1 GZL       0.106300
      6 O1           3.8870     0.2240     0.0460 oh         1 GZL      -0.648000
      7 O2           1.5850    -1.3640     0.5030 oh         1 GZL      -0.700000
      8 O3          -0.2140     0.8750     0.7900 os         1 GZL      -0.484000
      9 O4          -1.4780    -0.0800    -2.1190 oh         1 GZL      -0.699000
     10 C6          -1.5980     0.6910     0.9310 c5         1 GZL       0.348300
     11 O5          -1.4640    -1.7160     1.0650 oh         1 GZL      -0.705000
     12 O6          -2.3350     1.6750     0.2830 oh         1 GZL      -0.720000
     13 H11          2.5290     1.6740    -0.5630 h1         1 GZL       0.025200
     14 H12          2.3660     1.1550     1.1160 h1         1 GZL       0.025200
     15 H1           4.5240     0.8820     0.3360 ho         1 GZL       0.439000
     16 H21          1.8760    -0.5880    -1.3340 h1         1 GZL       0.083700
     17 H31          0.2640     1.2050    -1.2060 h1         1 GZL       0.077700
     18 H2           1.0420    -1.1680     1.2740 ho         1 GZL       0.513000
     19 H41         -0.4850    -1.5960    -1.1240 h1         1 GZL       0.078700
     20 H4          -2.1010    -0.7310    -2.4570 ho         1 GZL       0.510000
     21 H51         -2.9060    -0.7430    -0.0770 h1         1 GZL       0.067700
     22 H61         -1.8050     0.6740     2.0080 h2         1 GZL       0.062700
     23 H5          -2.0400    -1.7460     1.8350 ho         1 GZL       0.509000
     24 H6          -2.2400     2.5040     0.7640 ho         1 GZL       0.517000
@<TRIPOS>BOND
     1     1     2 1   
     2     1     6 1   
     3     1    13 1   
     4     1    14 1   
     5     2     3 1   
     6     2     7 1   
     7     2    16 1   
     8     3     4 1   
     9     3     8 1   
    10     3    17 1   
    11     4     5 1   
    12     4     9 1   
    13     4    19 1   
    14     5    10 1   
    15     5    11 1   
    16     5    21 1   
    17     6    15 1   
    18     7    18 1   
    19     8    10 1   
    20     9    20 1   
    21    10    12 1   
    22    10    22 1   
    23    11    23 1   
    24    12    24 1   
@<TRIPOS>SUBSTRUCTURE
     1 GZL         1 TEMP              0 ****  ****    0 ROOT
