@<TRIPOS>MOLECULE
GZM
   59    61     1     0     0
SMALL
No Charge or Current Charge


@<TRIPOS>ATOM
      1 C2         -72.6900   -19.9640    29.8380 c6         1 GZM       0.096000
      2 C3         -72.4670   -18.7690    28.8610 c6         1 GZM      -0.087400
      3 C4         -71.0160   -18.1360    28.8840 c6         1 GZM      -0.117000
      4 C5         -70.6770   -17.8930    30.3940 c6         1 GZM      -0.087400
      5 C6         -70.8350   -19.1620    31.2580 c6         1 GZM       0.096000
      6 C8         -71.0740   -16.7890    28.0610 c3         1 GZM      -0.024100
      7 C9         -69.9350   -15.7840    28.2640 ca         1 GZM      -0.074300
      8 C10        -68.8820   -15.6970    27.3340 ca         1 GZM      -0.101000
      9 C11        -67.8520   -14.7570    27.5070 ca         1 GZM      -0.091000
     10 C12        -69.9580   -14.8870    29.3500 ca         1 GZM      -0.101000
     11 C13        -68.9280   -13.9470    29.5220 ca         1 GZM      -0.091000
     12 C14        -67.8500   -13.8640    28.6070 cp         1 GZM      -0.040000
     13 C15        -66.7510   -12.8640    28.7910 cp         1 GZM      -0.012000
     14 C16        -65.4130   -13.1700    28.4330 ca         1 GZM      -0.096000
     15 C17        -64.3830   -12.2310    28.6060 ca         1 GZM       0.125000
     16 C18        -64.6630   -10.9650    29.1400 ca         1 GZM      -0.097000
     17 C20        -72.5780   -19.1680    33.7070 c3         1 GZM       0.078600
     18 C22        -73.0910   -18.8280    36.0560 c3         1 GZM       0.141900
     19 C26        -65.9790   -10.6400    29.5000 ca         1 GZM       0.125000
     20 C27        -67.0120   -11.5770    29.3290 ca         1 GZM      -0.096000
     21 C28        -69.9200   -19.0670    28.2430 c          1 GZM       0.604100
     22 C30        -69.4380   -21.2990    27.1680 c3         1 GZM       0.103000
     23 C32        -69.3410   -21.0120    25.6600 c3         1 GZM      -0.113100
     24 N29        -70.3020   -20.3350    27.8540 ns         1 GZM      -0.510900
     25 N7         -72.2440   -19.6280    31.2110 n          1 GZM      -0.416800
     26 O21        -73.5790   -19.1950    34.7540 os         1 GZM      -0.417000
     27 O25        -74.3270   -19.8470    32.1550 o          1 GZM      -0.573100
     28 O33        -68.7950   -18.6650    27.9850 o          1 GZM      -0.602100
     29 Cl1        -66.3390    -9.0520    30.1650 cl         1 GZM      -0.192000
     30 Cl2        -62.7340   -12.6460    28.1560 cl         1 GZM      -0.192000
     31 H1         -73.7560   -20.2320    29.8260 h1         1 GZM       0.063950
     32 H2         -72.1490   -20.8590    29.5060 h1         1 GZM       0.063950
     33 H3         -73.1980   -17.9970    29.1410 hc         1 GZM       0.054950
     34 H4         -72.7420   -19.0650    27.8390 hc         1 GZM       0.054950
     35 H5         -69.6480   -17.5190    30.4930 hc         1 GZM       0.054950
     36 H6         -71.3300   -17.1100    30.8030 hc         1 GZM       0.054950
     37 H7         -70.1770   -19.9580    30.8790 h1         1 GZM       0.063950
     38 H8         -70.5060   -18.9450    32.2830 h1         1 GZM       0.063950
     39 H9         -72.0060   -16.2610    28.2980 hc         1 GZM       0.050700
     40 H10        -71.1630   -17.0270    26.9930 hc         1 GZM       0.050700
     41 H11        -68.8590   -16.3610    26.4740 ha         1 GZM       0.112500
     42 H12        -67.0550   -14.7120    26.7690 ha         1 GZM       0.117000
     43 H13        -70.7770   -14.9160    30.0650 ha         1 GZM       0.112500
     44 H14        -68.9650   -13.2830    30.3820 ha         1 GZM       0.117000
     45 H15        -65.1670   -14.1490    28.0300 ha         1 GZM       0.136000
     46 H16        -63.8660   -10.2390    29.2730 ha         1 GZM       0.145000
     47 H17        -71.7610   -19.8600    33.9440 h1         1 GZM       0.035700
     48 H18        -72.1530   -18.1600    33.6150 h1         1 GZM       0.035700
     49 H19        -73.9020   -18.8720    36.7930 h1         1 GZM       0.030700
     50 H20        -72.2950   -19.5120    36.3810 h1         1 GZM       0.030700
     51 H21        -72.6900   -17.8060    36.0480 h1         1 GZM       0.030700
     52 H22        -68.0240   -11.2960    29.6030 ha         1 GZM       0.136000
     53 H23        -69.8480   -22.3060    27.3200 h1         1 GZM       0.052200
     54 H24        -68.4360   -21.2720    27.6160 h1         1 GZM       0.052200
     55 H25        -68.7040   -21.7580    25.1710 hc         1 GZM       0.041700
     56 H26        -70.3330   -21.0490    25.1940 hc         1 GZM       0.041700
     57 H27        -68.9090   -20.0210    25.4780 hc         1 GZM       0.041700
     58 H28        -71.2660   -20.5910    28.0160 hn         1 GZM       0.311500
     59 C24        -73.1420   -19.5670    32.3100 c          1 GZM       0.605100
@<TRIPOS>BOND
     1     1     2 1   
     2     1    25 1   
     3     1    31 1   
     4     1    32 1   
     5     2     3 1   
     6     2    33 1   
     7     2    34 1   
     8     3     4 1   
     9     3     6 1   
    10     3    21 1   
    11     4     5 1   
    12     4    35 1   
    13     4    36 1   
    14     5    25 1   
    15     5    37 1   
    16     5    38 1   
    17     6     7 1   
    18     6    39 1   
    19     6    40 1   
    20     7     8 ar  
    21     7    10 ar  
    22     8     9 ar  
    23     8    41 1   
    24     9    12 ar  
    25     9    42 1   
    26    10    11 ar  
    27    10    43 1   
    28    11    12 ar  
    29    11    44 1   
    30    12    13 1   
    31    13    14 ar  
    32    13    20 ar  
    33    14    15 ar  
    34    14    45 1   
    35    15    16 ar  
    36    15    30 1   
    37    16    19 ar  
    38    16    46 1   
    39    17    26 1   
    40    17    47 1   
    41    17    48 1   
    42    17    59 1   
    43    18    26 1   
    44    18    49 1   
    45    18    50 1   
    46    18    51 1   
    47    19    20 ar  
    48    19    29 1   
    49    20    52 1   
    50    21    24 1   
    51    21    28 2   
    52    22    23 1   
    53    22    24 1   
    54    22    53 1   
    55    22    54 1   
    56    23    55 1   
    57    23    56 1   
    58    23    57 1   
    59    24    58 1   
    60    25    59 1   
    61    27    59 2   
@<TRIPOS>SUBSTRUCTURE
     1 GZM         1 TEMP              0 ****  ****    0 ROOT
