@<TRIPOS>MOLECULE
GZM
   59    61     1     0     0
SMALL
bcc


@<TRIPOS>ATOM
      1 C2         -72.3300   -20.1660    30.0870 c6         1 GZM       0.096000
      2 C3         -72.3200   -18.9210    29.2130 c6         1 GZM      -0.087400
      3 C4         -71.0560   -18.0690    29.4140 c6         1 GZM      -0.117000
      4 C5         -70.9050   -17.7970    30.9150 c6         1 GZM      -0.087400
      5 C6         -70.9870   -19.0600    31.7680 c6         1 GZM       0.096000
      6 C8         -71.2480   -16.7430    28.6330 c3         1 GZM      -0.024100
      7 C9         -70.0470   -15.8390    28.5840 ca         1 GZM      -0.074300
      8 C10        -69.1570   -15.8900    27.5130 ca         1 GZM      -0.119000
      9 C11        -68.0520   -15.0560    27.4590 ca         1 GZM      -0.109000
     10 C12        -69.7970   -14.9160    29.5970 ca         1 GZM      -0.119000
     11 C13        -68.6950   -14.0780    29.5470 ca         1 GZM      -0.109000
     12 C14        -67.8030   -14.1340    28.4760 cp         1 GZM      -0.040000
     13 C15        -66.6360   -13.2320    28.4080 cp         1 GZM      -0.012000
     14 C16        -65.4150   -13.6950    27.9190 ca         1 GZM      -0.114000
     15 C17        -64.3320   -12.8360    27.8530 ca         1 GZM       0.033400
     16 C18        -64.4170   -11.5160    28.2650 ca         1 GZM      -0.115000
     17 C20        -73.0210   -19.4630    33.7630 c3         1 GZM       0.055400
     18 C22        -74.0270   -19.3310    35.8490 c3         1 GZM       0.118700
     19 C26        -65.6370   -11.0740    28.7500 ca         1 GZM       0.033400
     20 C27        -66.7410   -11.9060    28.8250 ca         1 GZM      -0.114000
     21 C28        -69.7980   -18.7680    28.8740 c          1 GZM       0.671100
     22 C30        -68.7380   -19.7960    26.9170 c3         1 GZM       0.103000
     23 C32        -69.0680   -20.0000    25.4510 c3         1 GZM      -0.113100
     24 N29        -69.8740   -19.2260    27.6140 ns         1 GZM      -0.577900
     25 N7         -72.2050   -19.7990    31.4850 n          1 GZM      -0.483800
     26 O21        -74.1480   -19.7710    34.5200 os         1 GZM      -0.370600
     27 O25        -74.2880   -20.4960    32.0220 o          1 GZM      -0.573100
     28 O33        -68.7690   -18.8680    29.5290 o          1 GZM      -0.602100
     29 CL1        -65.7800    -9.4290    29.2650 cl         1 GZM      -0.100400
     30 CL2        -62.8210   -13.4270    27.2520 cl         1 GZM      -0.100400
     31 H1         -73.2490   -20.7270    29.9400 h1         1 GZM       0.063950
     32 H2         -71.5010   -20.8310    29.8230 h1         1 GZM       0.063950
     33 H3         -73.1880   -18.3060    29.4700 hc         1 GZM       0.054950
     34 H4         -72.4580   -19.2080    28.1690 hc         1 GZM       0.054950
     35 H5         -69.9660   -17.2880    31.1330 hc         1 GZM       0.054950
     36 H6         -71.7100   -17.1220    31.2210 hc         1 GZM       0.054950
     37 H7         -70.1330   -19.7120    31.5720 h1         1 GZM       0.063950
     38 H8         -70.9310   -18.7870    32.8180 h1         1 GZM       0.063950
     39 H9         -72.0860   -16.2120    29.0930 hc         1 GZM       0.050700
     40 H10        -71.5600   -16.9760    27.6120 hc         1 GZM       0.050700
     41 H11        -69.3380   -16.5810    26.6980 ha         1 GZM       0.130500
     42 H12        -67.3960   -15.1070    26.5990 ha         1 GZM       0.135000
     43 H13        -70.4770   -14.8450    30.4370 ha         1 GZM       0.130500
     44 H14        -68.5230   -13.3820    30.3580 ha         1 GZM       0.135000
     45 H15        -65.3030   -14.7260    27.6090 ha         1 GZM       0.154000
     46 H16        -63.5630   -10.8560    28.2090 ha         1 GZM       0.163000
     47 H17        -72.1170   -19.9250    34.1870 h1         1 GZM       0.035700
     48 H18        -72.8360   -18.3770    33.7470 h1         1 GZM       0.035700
     49 H19        -74.9400   -19.6050    36.3750 h1         1 GZM       0.030700
     50 H20        -73.1770   -19.7970    36.3620 h1         1 GZM       0.030700
     51 H21        -73.9020   -18.2430    35.9140 h1         1 GZM       0.030700
     52 H22        -67.6840   -11.5180    29.1880 ha         1 GZM       0.154000
     53 H23        -68.4560   -20.7480    27.3750 h1         1 GZM       0.052200
     54 H24        -67.8770   -19.1300    27.0150 h1         1 GZM       0.052200
     55 H25        -68.2140   -20.4310    24.9310 hc         1 GZM       0.041700
     56 H26        -69.9130   -20.6770    25.3220 hc         1 GZM       0.041700
     57 H27        -69.3120   -19.0530    24.9660 hc         1 GZM       0.041700
     58 H28        -70.7240   -19.1070    27.0880 hn         1 GZM       0.311500
     59 C24        -73.2360   -19.9650    32.3400 c          1 GZM       0.672100
@<TRIPOS>BOND
     1     1     2 1   
     2     1    25 1   
     3     1    31 1   
     4     1    32 1   
     5     2     3 1   
     6     2    33 1   
     7     2    34 1   
     8     3     4 1   
     9     3     6 1   
    10     3    21 1   
    11     4     5 1   
    12     4    35 1   
    13     4    36 1   
    14     5    25 1   
    15     5    37 1   
    16     5    38 1   
    17     6     7 1   
    18     6    39 1   
    19     6    40 1   
    20     7     8 ar  
    21     7    10 ar  
    22     8     9 ar  
    23     8    41 1   
    24     9    12 ar  
    25     9    42 1   
    26    10    11 ar  
    27    10    43 1   
    28    11    12 ar  
    29    11    44 1   
    30    12    13 1   
    31    13    14 ar  
    32    13    20 ar  
    33    14    15 ar  
    34    14    45 1   
    35    15    16 ar  
    36    15    30 1   
    37    16    19 ar  
    38    16    46 1   
    39    17    26 1   
    40    17    47 1   
    41    17    48 1   
    42    17    59 1   
    43    18    26 1   
    44    18    49 1   
    45    18    50 1   
    46    18    51 1   
    47    19    20 ar  
    48    19    29 1   
    49    20    52 1   
    50    21    24 1   
    51    21    28 2   
    52    22    23 1   
    53    22    24 1   
    54    22    53 1   
    55    22    54 1   
    56    23    55 1   
    57    23    56 1   
    58    23    57 1   
    59    24    58 1   
    60    25    59 1   
    61    27    59 2   
@<TRIPOS>SUBSTRUCTURE
     1 GZM         1 TEMP              0 ****  ****    0 ROOT
