@<TRIPOS>MOLECULE
GZN
   45    48     1     0     0
SMALL
abcg2


@<TRIPOS>ATOM
      1 CAU          0.3730    -6.5400    -6.9670 c3         1 GZN       0.078900
      2 NAT         -0.3250    -5.8660    -8.0450 na         1 GZN       0.121800
      3 CAV          0.2340    -5.2070    -9.0890 cc         1 GZN      -0.164000
      4 NAS         -1.6650    -5.8040    -8.0540 nc         1 GZN      -0.509800
      5 CAR         -1.9810    -5.0900    -9.1340 cd         1 GZN       0.210900
      6 CAQ         -0.8210    -4.6860    -9.8240 cd         1 GZN      -0.074400
      7 NAP         -0.8070    -3.9210   -10.9920 ns         1 GZN      -0.373100
      8 CAO          0.3040    -3.5030   -11.6490 c          1 GZN       0.626300
      9 OBB          1.4370    -3.8540   -11.3190 o          1 GZN      -0.593100
     10 CAN          0.0620    -2.5590   -12.7780 cc         1 GZN      -0.212400
     11 CBA         -0.8120    -1.5390   -12.6050 cd         1 GZN      -0.011400
     12 CAM          0.8000    -2.6360   -14.0170 ca         1 GZN       0.036200
     13 CAW          1.6840    -3.6870   -14.3290 ca         1 GZN      -0.108000
     14 CAX          2.3380    -3.7180   -15.5430 ca         1 GZN      -0.074000
     15 CAY          2.1400    -2.7050   -16.4890 ca         1 GZN      -0.128000
     16 CAZ          1.2750    -1.6680   -16.2070 ca         1 GZN      -0.049000
     17 CAL          0.5960    -1.6230   -14.9810 ca         1 GZN      -0.169600
     18 CAJ         -0.3240    -0.5070   -14.7390 c          1 GZN       0.574600
     19 OAK         -0.4930     0.4260   -15.5240 o          1 GZN      -0.552000
     20 NAI         -1.0210    -0.5610   -13.5380 n          1 GZN      -0.293000
     21 CAH         -1.9710     0.5180   -13.2100 c3         1 GZN       0.137300
     22 CAE         -1.3750     1.5180   -12.2520 ca         1 GZN      -0.112300
     23 CAF         -1.7870     1.5420   -10.9250 ca         1 GZN      -0.089000
     24 CAG         -1.2260     2.4420   -10.0250 ca         1 GZN       0.120000
     25 CL1         -1.7750     2.4300    -8.3750 cl         1 GZN      -0.174000
     26 CAB         -0.2420     3.3290   -10.4540 ca         1 GZN       0.132000
     27 CL2          0.4830     4.4700    -9.3610 cl         1 GZN      -0.172000
     28 CAC          0.1740     3.3090   -11.7820 ca         1 GZN      -0.096000
     29 CAD         -0.3890     2.4110   -12.6740 ca         1 GZN      -0.073000
     30 H1           0.2970    -5.9620    -6.0450 h1         1 GZN       0.057700
     31 H2          -0.0620    -7.5260    -6.8140 h1         1 GZN       0.057700
     32 H3           1.4190    -6.6440    -7.2440 h1         1 GZN       0.057700
     33 H4           1.2950    -5.1590    -9.2340 h4         1 GZN       0.181000
     34 H5          -3.0110    -4.8910    -9.3860 h4         1 GZN       0.036100
     35 H6          -1.7070    -3.6730   -11.3730 hn         1 GZN       0.321500
     36 H7          -1.3790    -1.4200   -11.6930 h4         1 GZN       0.202000
     37 H8           1.8490    -4.4710   -13.6050 ha         1 GZN       0.139000
     38 H9           3.0110    -4.5370   -15.7650 ha         1 GZN       0.118000
     39 H10          2.6590    -2.7380   -17.4380 ha         1 GZN       0.120000
     40 H11          1.1000    -0.8790   -16.9240 ha         1 GZN       0.136000
     41 H12         -2.2430     0.9930   -14.1480 h1         1 GZN       0.079200
     42 H13         -2.8570     0.0570   -12.7780 h1         1 GZN       0.079200
     43 H14         -2.5500     0.8570   -10.5790 ha         1 GZN       0.127000
     44 H15          0.9360     4.0030   -12.1060 ha         1 GZN       0.138000
     45 H16         -0.0580     2.4020   -13.7040 ha         1 GZN       0.142000
@<TRIPOS>BOND
     1     1     2 1   
     2     1    30 1   
     3     1    31 1   
     4     1    32 1   
     5     2     3 1   
     6     2     4 1   
     7     3     6 2   
     8     3    33 1   
     9     4     5 2   
    10     5     6 1   
    11     5    34 1   
    12     6     7 1   
    13     7     8 1   
    14     7    35 1   
    15     8     9 2   
    16     8    10 1   
    17    10    11 2   
    18    10    12 1   
    19    11    20 1   
    20    11    36 1   
    21    12    13 ar  
    22    12    17 ar  
    23    13    14 ar  
    24    13    37 1   
    25    14    15 ar  
    26    14    38 1   
    27    15    16 ar  
    28    15    39 1   
    29    16    17 ar  
    30    16    40 1   
    31    17    18 1   
    32    18    19 2   
    33    18    20 1   
    34    20    21 1   
    35    21    22 1   
    36    21    41 1   
    37    21    42 1   
    38    22    23 ar  
    39    22    29 ar  
    40    23    24 ar  
    41    23    43 1   
    42    24    25 1   
    43    24    26 ar  
    44    26    27 1   
    45    26    28 ar  
    46    28    29 ar  
    47    28    44 1   
    48    29    45 1   
@<TRIPOS>SUBSTRUCTURE
     1 GZN         1 TEMP              0 ****  ****    0 ROOT
