@<TRIPOS>MOLECULE
GZN
   45    48     1     0     0
SMALL
No Charge or Current Charge


@<TRIPOS>ATOM
      1 CAU          0.2700    -6.6310    -6.9530 c3         1 GZN       0.078900
      2 NAT         -0.3060    -5.6560    -7.8900 na         1 GZN       0.121800
      3 CAV          0.2450    -5.2610    -9.1080 cc         1 GZN      -0.164000
      4 NAS         -1.5070    -5.0360    -7.5900 nc         1 GZN      -0.509800
      5 CAR         -1.7000    -4.2510    -8.6320 cd         1 GZN       0.210900
      6 CAQ         -0.6600    -4.3570    -9.5810 cd         1 GZN      -0.074400
      7 NAP         -0.6120    -3.6370   -10.7730 ns         1 GZN      -0.373100
      8 CAO          0.3390    -3.6800   -11.7850 c          1 GZN       0.626300
      9 OBB          1.2840    -4.4530   -11.7260 o          1 GZN      -0.593100
     10 CAN          0.1100    -2.7050   -12.9130 cc         1 GZN      -0.212400
     11 CBA         -0.8080    -1.6680   -12.7470 cd         1 GZN      -0.011400
     12 CAM          0.8650    -2.7130   -14.1950 ca         1 GZN       0.036200
     13 CAW          1.6870    -3.8020   -14.5870 ca         1 GZN      -0.108000
     14 CAX          2.4120    -3.7820   -15.7880 ca         1 GZN      -0.074000
     15 CAY          2.3230    -2.6800   -16.6430 ca         1 GZN      -0.128000
     16 CAZ          1.4830    -1.6120   -16.3050 ca         1 GZN      -0.049000
     17 CAL          0.7430    -1.6300   -15.0990 ca         1 GZN      -0.169600
     18 CAJ         -0.2080    -0.5080   -14.8160 c          1 GZN       0.574600
     19 OAK         -0.3070     0.4510   -15.5730 o          1 GZN      -0.552000
     20 NAI         -0.9870    -0.6220   -13.6510 n          1 GZN      -0.293000
     21 CAH         -1.9680     0.4470   -13.3340 c3         1 GZN       0.137300
     22 CAE         -1.4690     1.4060   -12.2590 ca         1 GZN      -0.112300
     23 CAF         -1.9720     1.3310   -10.9440 ca         1 GZN      -0.089000
     24 CAG         -1.5010     2.2080    -9.9510 ca         1 GZN       0.120000
     25 Cl1         -2.1550     2.0780    -8.3170 cl         1 GZN      -0.174000
     26 CAB         -0.5210     3.1700   -10.2690 ca         1 GZN       0.132000
     27 Cl2          0.0930     4.2850    -9.0480 cl         1 GZN      -0.172000
     28 CAC         -0.0180     3.2480   -11.5790 ca         1 GZN      -0.096000
     29 CAD         -0.4900     2.3690   -12.5710 ca         1 GZN      -0.073000
     30 H1           0.4620    -6.1450    -5.9890 h1         1 GZN       0.057700
     31 H2          -0.4330    -7.4610    -6.8090 h1         1 GZN       0.057700
     32 H3           1.2120    -7.0210    -7.3560 h1         1 GZN       0.057700
     33 H4           1.1800    -5.6450    -9.4960 h4         1 GZN       0.181000
     34 H5          -2.5850    -3.6280    -8.6740 h4         1 GZN       0.036100
     35 H6          -1.3780    -3.0080   -10.9640 hn         1 GZN       0.321500
     36 H7          -1.4210    -1.5210   -11.8640 h4         1 GZN       0.202000
     37 H8           1.7730    -4.6980   -13.9860 ha         1 GZN       0.139000
     38 H9           3.0410    -4.6280   -16.0580 ha         1 GZN       0.118000
     39 H10          2.8830    -2.6620   -17.5750 ha         1 GZN       0.120000
     40 H11          1.3960    -0.7750   -16.9950 ha         1 GZN       0.136000
     41 H12         -2.2270     1.0180   -14.2340 h1         1 GZN       0.079200
     42 H13         -2.9010    -0.0250   -12.9980 h1         1 GZN       0.079200
     43 H14         -2.7290     0.5940   -10.6870 ha         1 GZN       0.127000
     44 H15          0.7380     3.9890   -11.8250 ha         1 GZN       0.138000
     45 H16         -0.0910     2.4380   -13.5810 ha         1 GZN       0.142000
@<TRIPOS>BOND
     1     1     2 1   
     2     1    30 1   
     3     1    31 1   
     4     1    32 1   
     5     2     3 1   
     6     2     4 1   
     7     3     6 2   
     8     3    33 1   
     9     4     5 2   
    10     5     6 1   
    11     5    34 1   
    12     6     7 1   
    13     7     8 1   
    14     7    35 1   
    15     8     9 2   
    16     8    10 1   
    17    10    11 2   
    18    10    12 1   
    19    11    20 1   
    20    11    36 1   
    21    12    13 ar  
    22    12    17 ar  
    23    13    14 ar  
    24    13    37 1   
    25    14    15 ar  
    26    14    38 1   
    27    15    16 ar  
    28    15    39 1   
    29    16    17 ar  
    30    16    40 1   
    31    17    18 1   
    32    18    19 2   
    33    18    20 1   
    34    20    21 1   
    35    21    22 1   
    36    21    41 1   
    37    21    42 1   
    38    22    23 ar  
    39    22    29 ar  
    40    23    24 ar  
    41    23    43 1   
    42    24    25 1   
    43    24    26 ar  
    44    26    27 1   
    45    26    28 ar  
    46    28    29 ar  
    47    28    44 1   
    48    29    45 1   
@<TRIPOS>SUBSTRUCTURE
     1 GZN         1 TEMP              0 ****  ****    0 ROOT
