@<TRIPOS>MOLECULE
GZO
   50    53     1     0     0
SMALL
abcg2


@<TRIPOS>ATOM
      1 C12         99.8570   102.5870   114.3460 ca         1 GZO      -0.224900
      2 C13         98.4930   102.8990   114.4620 ca         1 GZO       0.356500
      3 C14         97.2380   104.9510   115.1930 c3         1 GZO       0.151900
      4 C15        100.5200   103.7670   114.7910 cc         1 GZO       0.285900
      5 C16         97.1070   106.0630   114.1880 ca         1 GZO      -0.158300
      6 C17        101.9620   104.0270   114.8700 ca         1 GZO       0.225700
      7 C18        100.1780   101.3170   113.8580 ca         1 GZO       0.017000
      8 C19        104.5840   104.4540   114.9740 ca         1 GZO      -0.321000
      9 C20         99.1250   100.4900   113.5290 ca         1 GZO      -0.212000
     10 C21         97.5510   107.3480   114.4540 ca         1 GZO       0.205000
     11 C22         96.5600   105.8220   112.9300 ca         1 GZO      -0.063000
     12 C23        104.0630   103.2030   114.6310 ca         1 GZO       0.421400
     13 C24        103.6630   105.4660   115.2660 ca         1 GZO       0.421400
     14 C25         97.8010   100.9330   113.6890 ca         1 GZO       0.371900
     15 C26         97.4680   108.3740   113.5310 ca         1 GZO      -0.159000
     16 C27         96.4650   106.8300   111.9820 ca         1 GZO      -0.134000
     17 C28         96.9210   108.1060   112.2850 ca         1 GZO      -0.072000
     18 C29        106.5640   105.2200   113.7520 c3         1 GZO       0.101300
     19 C30        106.7550   104.4330   116.0600 c          1 GZO       0.635100
     20 C31        106.7330   103.6730   118.2790 c3         1 GZO       0.165900
     21 F01         98.0810   107.6150   115.6590 f          1 GZO      -0.171000
     22 N04         98.4270   104.1600   114.9580 na         1 GZO      -0.022100
     23 N05         99.6360   104.6750   115.1410 nd         1 GZO      -0.444100
     24 N06         97.4640   102.1220   114.1510 nb         1 GZO      -0.684000
     25 N07        102.7380   102.9960   114.5790 nb         1 GZO      -0.281000
     26 N08        102.3420   105.2450   115.2120 nb         1 GZO      -0.281000
     27 N09        105.9720   104.7070   114.9790 n          1 GZO      -0.223400
     28 N10        104.8520   102.1470   114.3680 nv         1 GZO      -1.066900
     29 N11        104.0610   106.7100   115.5800 nv         1 GZO      -1.066900
     30 O02        106.0290   103.9850   117.0810 os         1 GZO      -0.433100
     31 O03        107.9570   104.5810   116.0960 o          1 GZO      -0.540000
     32 H1          97.2610   105.3230   116.2160 h1         1 GZO       0.082200
     33 H2          96.3890   104.2740   115.1120 h1         1 GZO       0.082200
     34 H3         101.2050   101.0010   113.7450 ha         1 GZO       0.139000
     35 H4          99.3030    99.4960   113.1450 ha         1 GZO       0.123000
     36 H5          96.2030   104.8260   112.6960 ha         1 GZO       0.124000
     37 H6          96.9840   100.2720   113.4230 h4         1 GZO       0.018100
     38 H7          97.8260   109.3630   113.7860 ha         1 GZO       0.132000
     39 H8          96.0350   106.6210   111.0120 ha         1 GZO       0.119000
     40 H9          96.8500   108.9000   111.5530 ha         1 GZO       0.117000
     41 H10        107.5700   105.5830   113.9400 h1         1 GZO       0.046033
     42 H11        106.6110   104.4480   112.9810 h1         1 GZO       0.046033
     43 H12        105.9640   106.0480   113.3760 h1         1 GZO       0.046033
     44 H13        105.9820   103.3130   118.9770 h1         1 GZO       0.048700
     45 H14        107.4770   102.8930   118.1180 h1         1 GZO       0.048700
     46 H15        107.2200   104.5520   118.7000 h1         1 GZO       0.048700
     47 H16        104.4300   101.3210   113.9810 hn         1 GZO       0.494000
     48 H17        105.8400   102.2610   114.2210 hn         1 GZO       0.494000
     49 H18        103.3740   107.3640   115.9130 hn         1 GZO       0.494000
     50 H19        105.0210   106.9040   115.8050 hn         1 GZO       0.494000
@<TRIPOS>BOND
     1     1     2 ar  
     2     1     4 1   
     3     1     7 ar  
     4     2    22 1   
     5     2    24 ar  
     6     3     5 1   
     7     3    22 1   
     8     3    32 1   
     9     3    33 1   
    10     4     6 1   
    11     4    23 2   
    12     5    10 ar  
    13     5    11 ar  
    14     6    25 ar  
    15     6    26 ar  
    16     7     9 ar  
    17     7    34 1   
    18     8    12 ar  
    19     8    13 ar  
    20     8    27 1   
    21     9    14 ar  
    22     9    35 1   
    23    10    15 ar  
    24    10    21 1   
    25    11    16 ar  
    26    11    36 1   
    27    12    25 ar  
    28    12    28 1   
    29    13    26 ar  
    30    13    29 1   
    31    14    24 ar  
    32    14    37 1   
    33    15    17 ar  
    34    15    38 1   
    35    16    17 ar  
    36    16    39 1   
    37    17    40 1   
    38    18    27 1   
    39    18    41 1   
    40    18    42 1   
    41    18    43 1   
    42    19    27 1   
    43    19    30 1   
    44    19    31 2   
    45    20    30 1   
    46    20    44 1   
    47    20    45 1   
    48    20    46 1   
    49    22    23 1   
    50    28    47 1   
    51    28    48 1   
    52    29    49 1   
    53    29    50 1   
@<TRIPOS>SUBSTRUCTURE
     1 GZO         1 TEMP              0 ****  ****    0 ROOT
