@<TRIPOS>MOLECULE
GZO
   50    53     1     0     0
SMALL
No Charge or Current Charge


@<TRIPOS>ATOM
      1 C12         99.8820   102.8850   114.2930 ca         1 GZO      -0.224900
      2 C13         98.5560   103.1830   114.4710 ca         1 GZO       0.356500
      3 C14         97.3130   105.1850   115.3440 c3         1 GZO       0.151900
      4 C15        100.6320   104.0390   114.7760 cc         1 GZO       0.285900
      5 C16         96.8690   106.1260   114.2280 ca         1 GZO      -0.158300
      6 C17        102.1090   104.1640   114.8230 ca         1 GZO       0.225700
      7 C18        100.2790   101.6710   113.7080 ca         1 GZO       0.017000
      8 C19        104.8240   104.4380   114.8210 ca         1 GZO      -0.321000
      9 C20         99.2450   100.7870   113.3490 ca         1 GZO      -0.212000
     10 C21         97.1770   107.5020   114.2700 ca         1 GZO       0.205000
     11 C22         96.1490   105.6180   113.1270 ca         1 GZO      -0.063000
     12 C23        104.1880   103.1880   114.7680 ca         1 GZO       0.421400
     13 C24        103.9530   105.5310   114.9650 ca         1 GZO       0.421400
     14 C25         97.9060   101.1570   113.5800 ca         1 GZO       0.371900
     15 C26         96.7690   108.3570   113.2330 ca         1 GZO      -0.159000
     16 C27         95.7410   106.4740   112.0890 ca         1 GZO      -0.134000
     17 C28         96.0500   107.8440   112.1400 ca         1 GZO      -0.072000
     18 C29        107.0260   105.3790   114.0440 c3         1 GZO       0.101300
     19 C30        106.9610   104.0930   116.1600 c          1 GZO       0.635100
     20 C31        106.7030   103.0380   118.3110 c3         1 GZO       0.165900
     21 F01         97.8690   108.0180   115.3110 f          1 GZO      -0.171000
     22 N04         98.5500   104.4540   115.0200 na         1 GZO      -0.022100
     23 N05         99.8100   105.0060   115.2150 nd         1 GZO      -0.444100
     24 N06         97.5530   102.3450   114.1320 nb         1 GZO      -0.684000
     25 N07        102.8590   103.0440   114.7360 nb         1 GZO      -0.281000
     26 N08        102.6230   105.4110   114.9450 nb         1 GZO      -0.281000
     27 N09        106.2630   104.5660   115.0170 n          1 GZO      -0.223400
     28 N10        104.8860   102.0330   114.6380 nv         1 GZO      -1.066900
     29 N11        104.4020   106.7940   115.1660 nv         1 GZO      -1.066900
     30 O02        106.1220   103.5520   117.1000 os         1 GZO      -0.433100
     31 O03        108.1750   104.1840   116.3000 o          1 GZO      -0.540000
     32 H1          97.4730   105.7450   116.2730 h1         1 GZO       0.082200
     33 H2          96.5150   104.4590   115.5460 h1         1 GZO       0.082200
     34 H3         101.3180   101.4100   113.5270 ha         1 GZO       0.139000
     35 H4          99.4720    99.8270   112.8950 ha         1 GZO       0.123000
     36 H5          95.9050   104.5580   113.0750 ha         1 GZO       0.124000
     37 H6          97.0910   100.4870   113.3100 h4         1 GZO       0.018100
     38 H7          97.0120   109.4150   113.2780 ha         1 GZO       0.132000
     39 H8          95.1850   106.0750   111.2440 ha         1 GZO       0.119000
     40 H9          95.7340   108.5050   111.3350 ha         1 GZO       0.117000
     41 H10        107.4400   106.2650   114.5400 h1         1 GZO       0.046033
     42 H11        107.8480   104.7810   113.6290 h1         1 GZO       0.046033
     43 H12        106.3730   105.6980   113.2220 h1         1 GZO       0.046033
     44 H13        105.9210   102.6350   118.9680 h1         1 GZO       0.048700
     45 H14        107.4120   102.2290   118.0920 h1         1 GZO       0.048700
     46 H15        107.2330   103.8280   118.8580 h1         1 GZO       0.048700
     47 H16        104.3850   101.1970   114.3530 hn         1 GZO       0.494000
     48 H17        105.8650   102.0920   114.3800 hn         1 GZO       0.494000
     49 H18        103.7310   107.4860   115.4870 hn         1 GZO       0.494000
     50 H19        105.3580   106.9120   115.4830 hn         1 GZO       0.494000
@<TRIPOS>BOND
     1     1     2 ar  
     2     1     4 1   
     3     1     7 ar  
     4     2    22 1   
     5     2    24 ar  
     6     3     5 1   
     7     3    22 1   
     8     3    32 1   
     9     3    33 1   
    10     4     6 1   
    11     4    23 2   
    12     5    10 ar  
    13     5    11 ar  
    14     6    25 ar  
    15     6    26 ar  
    16     7     9 ar  
    17     7    34 1   
    18     8    12 ar  
    19     8    13 ar  
    20     8    27 1   
    21     9    14 ar  
    22     9    35 1   
    23    10    15 ar  
    24    10    21 1   
    25    11    16 ar  
    26    11    36 1   
    27    12    25 ar  
    28    12    28 1   
    29    13    26 ar  
    30    13    29 1   
    31    14    24 ar  
    32    14    37 1   
    33    15    17 ar  
    34    15    38 1   
    35    16    17 ar  
    36    16    39 1   
    37    17    40 1   
    38    18    27 1   
    39    18    41 1   
    40    18    42 1   
    41    18    43 1   
    42    19    27 1   
    43    19    30 1   
    44    19    31 2   
    45    20    30 1   
    46    20    44 1   
    47    20    45 1   
    48    20    46 1   
    49    22    23 1   
    50    28    47 1   
    51    28    48 1   
    52    29    49 1   
    53    29    50 1   
@<TRIPOS>SUBSTRUCTURE
     1 GZO         1 TEMP              0 ****  ****    0 ROOT
