@<TRIPOS>MOLECULE
GZP
   33    35     1     0     0
SMALL
abcg2


@<TRIPOS>ATOM
      1 C1          -5.3030     0.5050    -0.0240 ca         1 GZP      -0.102000
      2 C2          -4.8270    -0.7950    -0.1390 ca         1 GZP      -0.107000
      3 C6          -4.4050     1.5540     0.1300 ca         1 GZP      -0.107000
      4 C3          -3.4640    -1.0470    -0.1020 ca         1 GZP      -0.096500
      5 C5          -3.0420     1.3040     0.1730 ca         1 GZP      -0.096500
      6 C8          -0.0490     0.5750    -0.2210 cc         1 GZP      -0.207000
      7 C4          -2.5550     0.0010     0.0560 ca         1 GZP      -0.022000
      8 C7          -1.1160    -0.2400     0.1020 cd         1 GZP      -0.096000
      9 C9           1.0950    -0.2110     0.0100 cc         1 GZP       0.236300
     10 C14          4.8750    -0.3160    -0.1040 c5         1 GZP      -0.074900
     11 C15          4.6260     0.7500     0.9870 c5         1 GZP      -0.074900
     12 C13          3.5060    -0.9490    -0.3610 c5         1 GZP      -0.085400
     13 C16          3.0960     0.8590     1.1230 c5         1 GZP      -0.085400
     14 C12          2.5310     0.2060    -0.1460 c5         1 GZP       0.151700
     15 N11         -0.5710    -1.4110     0.4850 na         1 GZP       0.003800
     16 N10          0.7560    -1.4130     0.4400 nd         1 GZP      -0.510800
     17 O17          2.6640     1.0760    -1.2560 oh         1 GZP      -0.650000
     18 H1          -6.3670     0.6990    -0.0550 ha         1 GZP       0.116000
     19 H2          -5.5200    -1.6170    -0.2650 ha         1 GZP       0.116000
     20 H6          -4.7660     2.5690     0.2240 ha         1 GZP       0.116000
     21 H3          -3.1130    -2.0660    -0.2180 ha         1 GZP       0.114000
     22 H5          -2.3500     2.1250     0.3110 ha         1 GZP       0.114000
     23 H11         -1.0570    -2.2270     0.8230 hn         1 GZP       0.371000
     24 H141         5.2500     0.1490    -1.0160 hc         1 GZP       0.043450
     25 H142         5.6140    -1.0580     0.1990 hc         1 GZP       0.043450
     26 H151         5.0720     0.4580     1.9380 hc         1 GZP       0.043450
     27 H152         5.0760     1.7050     0.7130 hc         1 GZP       0.043450
     28 H131         3.4120    -1.3980    -1.3530 hc         1 GZP       0.055700
     29 H132         3.2940    -1.7280     0.3720 hc         1 GZP       0.055700
     30 H161         2.7470     0.3060     1.9970 hc         1 GZP       0.055700
     31 H162         2.7410     1.8870     1.2470 hc         1 GZP       0.055700
     32 H17          2.3860     1.9600    -0.9970 ho         1 GZP       0.439000
     33 H8          -0.1050     1.5860    -0.5910 ha         1 GZP       0.143000
@<TRIPOS>BOND
     1     1     2 ar  
     2     1     3 ar  
     3     1    18 1   
     4     2     4 ar  
     5     2    19 1   
     6     3     5 ar  
     7     3    20 1   
     8     4     7 ar  
     9     4    21 1   
    10     5     7 ar  
    11     5    22 1   
    12     6     8 2   
    13     6     9 1   
    14     6    33 1   
    15     7     8 1   
    16     8    15 1   
    17     9    14 1   
    18     9    16 2   
    19    10    11 1   
    20    10    12 1   
    21    10    24 1   
    22    10    25 1   
    23    11    13 1   
    24    11    26 1   
    25    11    27 1   
    26    12    14 1   
    27    12    28 1   
    28    12    29 1   
    29    13    14 1   
    30    13    30 1   
    31    13    31 1   
    32    14    17 1   
    33    15    16 1   
    34    15    23 1   
    35    17    32 1   
@<TRIPOS>SUBSTRUCTURE
     1 GZP         1 TEMP              0 ****  ****    0 ROOT
