@<TRIPOS>MOLECULE
GZP
   33    35     1     0     0
SMALL
No Charge or Current Charge


@<TRIPOS>ATOM
      1 C1          -5.1910     0.7460     0.2640 ca         1 GZP      -0.102000
      2 C2          -4.8670    -0.6140     0.1410 ca         1 GZP      -0.107000
      3 C6          -4.1690     1.7090     0.2710 ca         1 GZP      -0.107000
      4 C3          -3.5230    -1.0120     0.0250 ca         1 GZP      -0.096500
      5 C5          -2.8250     1.3120     0.1550 ca         1 GZP      -0.096500
      6 C8           0.0470     0.3050    -0.1070 cc         1 GZP      -0.207000
      7 C4          -2.4860    -0.0530     0.0300 ca         1 GZP      -0.022000
      8 C7          -1.0750    -0.4710    -0.0920 cd         1 GZP      -0.096000
      9 C9           1.1410    -0.5670    -0.2370 cc         1 GZP       0.236300
     10 C14          4.9210    -0.1400     0.2120 c5         1 GZP      -0.074900
     11 C15          4.3690     1.0990     0.9850 c5         1 GZP      -0.074900
     12 C13          3.6600    -0.9930    -0.1100 c5         1 GZP      -0.085400
     13 C16          2.8210     0.9120     0.9920 c5         1 GZP      -0.085400
     14 C12          2.5390     0.0750    -0.2930 c5         1 GZP       0.151700
     15 N11         -0.5880    -1.7840    -0.2220 na         1 GZP       0.003800
     16 N10          0.8050    -1.8410    -0.3170 nd         1 GZP      -0.510800
     17 O17          2.7480     0.8460    -1.4870 oh         1 GZP      -0.650000
     18 H1          -6.2310     1.0530     0.3540 ha         1 GZP       0.116000
     19 H2          -5.6570    -1.3620     0.1350 ha         1 GZP       0.116000
     20 H6          -4.4180     2.7630     0.3670 ha         1 GZP       0.116000
     21 H3          -3.2980    -2.0700    -0.0700 ha         1 GZP       0.114000
     22 H5          -2.0520     2.0750     0.1630 ha         1 GZP       0.114000
     23 H11         -1.1520    -2.6310    -0.2510 hn         1 GZP       0.371000
     24 H141         5.4310     0.1720    -0.7070 hc         1 GZP       0.043450
     25 H142         5.6520    -0.7040     0.8030 hc         1 GZP       0.043450
     26 H151         4.7710     1.1630     2.0030 hc         1 GZP       0.043450
     27 H152         4.6520     2.0280     0.4760 hc         1 GZP       0.043450
     28 H131         3.7960    -1.6140    -1.0020 hc         1 GZP       0.055700
     29 H132         3.4330    -1.6740     0.7200 hc         1 GZP       0.055700
     30 H161         2.5010     0.3710     1.8910 hc         1 GZP       0.055700
     31 H162         2.2940     1.8720     1.0000 hc         1 GZP       0.055700
     32 H17          1.9750     1.4440    -1.5790 ho         1 GZP       0.439000
     33 H8           0.1070     1.3840    -0.0310 ha         1 GZP       0.143000
@<TRIPOS>BOND
     1     1     2 ar  
     2     1     3 ar  
     3     1    18 1   
     4     2     4 ar  
     5     2    19 1   
     6     3     5 ar  
     7     3    20 1   
     8     4     7 ar  
     9     4    21 1   
    10     5     7 ar  
    11     5    22 1   
    12     6     8 2   
    13     6     9 1   
    14     6    33 1   
    15     7     8 1   
    16     8    15 1   
    17     9    14 1   
    18     9    16 2   
    19    10    11 1   
    20    10    12 1   
    21    10    24 1   
    22    10    25 1   
    23    11    13 1   
    24    11    26 1   
    25    11    27 1   
    26    12    14 1   
    27    12    28 1   
    28    12    29 1   
    29    13    14 1   
    30    13    30 1   
    31    13    31 1   
    32    14    17 1   
    33    15    16 1   
    34    15    23 1   
    35    17    32 1   
@<TRIPOS>SUBSTRUCTURE
     1 GZP         1 TEMP              0 ****  ****    0 ROOT
