@<TRIPOS>MOLECULE
GZQ
   22    22     1     0     0
SMALL
No Charge or Current Charge


@<TRIPOS>ATOM
      1 C4           1.6110     0.7880    -0.4110 ca         1 GZQ      -0.095000
      2 C5           0.2210     0.7910    -0.2070 ca         1 GZQ       0.128000
      3 C6          -0.4080    -0.2780     0.4830 ca         1 GZQ      -0.038000
      4 C7          -2.4390    -0.8590     1.8150 c3         1 GZQ       0.100300
      5 C8          -2.6540    -0.4100    -0.6280 c          1 GZQ       0.610100
      6 C9          -4.1760    -0.3020    -0.4760 c3         1 GZQ      -0.174100
      7 C3           0.3760    -1.3960     0.8450 ca         1 GZQ      -0.084000
      8 Cl2         -0.6930     2.2120    -0.7230 cl         1 GZQ      -0.183000
      9 C1           2.3830    -0.3010     0.0150 ca         1 GZQ       0.127000
     10 Cl1          4.1210    -0.3040    -0.2510 cl         1 GZQ      -0.191000
     11 C2           1.7660    -1.3970     0.6340 ca         1 GZQ      -0.099000
     12 N           -1.8460    -0.3930     0.5410 n          1 GZQ      -0.252400
     13 O           -2.1580    -0.4660    -1.7470 o          1 GZQ      -0.576100
     14 H1           2.0880     1.6300    -0.9030 ha         1 GZQ       0.146000
     15 H2          -3.2520    -0.1890     2.1200 h1         1 GZQ       0.042367
     16 H3          -2.8280    -1.8780     1.6960 h1         1 GZQ       0.042367
     17 H4          -1.6810    -0.8590     2.6090 h1         1 GZQ       0.042367
     18 H5          -4.6850    -0.1980    -1.4400 hc         1 GZQ       0.062700
     19 H6          -4.5490    -1.1760     0.0690 hc         1 GZQ       0.062700
     20 H7          -4.4160     0.5270     0.2000 hc         1 GZQ       0.062700
     21 H8          -0.0900    -2.2730     1.2880 ha         1 GZQ       0.129000
     22 H9           2.3620    -2.2550     0.9370 ha         1 GZQ       0.136000
@<TRIPOS>BOND
     1     1     2 ar  
     2     1     9 ar  
     3     1    14 1   
     4     2     3 ar  
     5     2     8 1   
     6     3     7 ar  
     7     3    12 1   
     8     4    12 1   
     9     4    15 1   
    10     4    16 1   
    11     4    17 1   
    12     5     6 1   
    13     5    12 1   
    14     5    13 2   
    15     6    18 1   
    16     6    19 1   
    17     6    20 1   
    18     7    11 ar  
    19     7    21 1   
    20     9    10 1   
    21     9    11 ar  
    22    11    22 1   
@<TRIPOS>SUBSTRUCTURE
     1 GZQ         1 TEMP              0 ****  ****    0 ROOT
