@<TRIPOS>MOLECULE
GZQ
   22    22     1     0     0
SMALL
bcc


@<TRIPOS>ATOM
      1 C4           1.5360     0.8650    -0.1040 ca         1 GZQ      -0.113000
      2 C5           0.1620     0.7540     0.0310 ca         1 GZQ       0.036400
      3 C6          -0.4460    -0.4670     0.3140 ca         1 GZQ       0.054600
      4 C7          -2.3850    -0.3620     1.8140 c3         1 GZQ       0.100300
      5 C8          -2.6130    -0.6430    -0.6450 c          1 GZQ       0.677100
      6 C9          -4.1030    -0.6120    -0.4380 c3         1 GZQ      -0.174100
      7 C3           0.3600    -1.5860     0.4620 ca         1 GZQ      -0.102000
      8 CL2         -0.8160     2.1630    -0.1520 cl         1 GZQ      -0.091400
      9 C1           2.3090    -0.2750     0.0510 ca         1 GZQ       0.035400
     10 CL1          4.0260    -0.1490    -0.1120 cl         1 GZQ      -0.099400
     11 C2           1.7370    -1.5040     0.3360 ca         1 GZQ      -0.117000
     12 N           -1.8460    -0.5620     0.4770 n          1 GZQ      -0.412000
     13 O           -2.1040    -0.7360    -1.7490 o          1 GZQ      -0.576100
     14 H1           1.9910     1.8200    -0.3250 ha         1 GZQ       0.164000
     15 H2          -2.6990     0.6700     1.9820 h1         1 GZQ       0.042367
     16 H3          -3.2300    -1.0210     1.9980 h1         1 GZQ       0.042367
     17 H4          -1.6180    -0.6080     2.5440 h1         1 GZQ       0.042367
     18 H5          -4.6040    -0.6680    -1.4000 hc         1 GZQ       0.062700
     19 H6          -4.4410    -1.4470     0.1780 hc         1 GZQ       0.062700
     20 H7          -4.4120     0.3070     0.0640 hc         1 GZQ       0.062700
     21 H8          -0.1030    -2.5390     0.6840 ha         1 GZQ       0.147000
     22 H9           2.3510    -2.3850     0.4560 ha         1 GZQ       0.154000
@<TRIPOS>BOND
     1     1     2 ar  
     2     1     9 ar  
     3     1    14 1   
     4     2     3 ar  
     5     2     8 1   
     6     3     7 ar  
     7     3    12 1   
     8     4    12 1   
     9     4    15 1   
    10     4    16 1   
    11     4    17 1   
    12     5     6 1   
    13     5    12 1   
    14     5    13 2   
    15     6    18 1   
    16     6    19 1   
    17     6    20 1   
    18     7    11 ar  
    19     7    21 1   
    20     9    10 1   
    21     9    11 ar  
    22    11    22 1   
@<TRIPOS>SUBSTRUCTURE
     1 GZQ         1 TEMP              0 ****  ****    0 ROOT
