@<TRIPOS>MOLECULE
GZR
   57    60     1     0     0
SMALL
abcg2


@<TRIPOS>ATOM
      1 C10        158.5640   185.5840   173.0040 c6         1 GZR      -0.037200
      2 C13        155.5860   188.2750   175.4190 ca         1 GZR      -0.093300
      3 C15        160.2350   185.5420   174.9450 ce         1 GZR      -0.114200
      4 C17        155.3620   189.2190   176.4180 ca         1 GZR      -0.067500
      5 C20        161.1950   183.7150   173.5010 ca         1 GZR      -0.126000
      6 C21        155.2960   190.5790   176.1240 ca         1 GZR      -0.147500
      7 C22        155.6760   190.0730   173.7880 ca         1 GZR      -0.147500
      8 C24        163.7750   184.6010   174.1230 ca         1 GZR       0.141100
      9 C26        162.3040   183.0620   172.9830 ca         1 GZR      -0.083000
     10 C28        165.8090   182.3540   173.3500 cc         1 GZR       0.430400
     11 C07        156.5540   184.8420   174.3580 c6         1 GZR       0.106000
     12 C08        157.2590   184.7620   172.9990 c6         1 GZR      -0.084400
     13 C09        155.6200   186.7800   175.6960 c3         1 GZR       0.176000
     14 C11        159.0440   185.8310   174.4060 cf         1 GZR      -0.160400
     15 C12        158.0330   186.5450   175.2510 c          1 GZR       0.555200
     16 C14        155.5420   186.3800   177.1680 c3         1 GZR      -0.111100
     17 C16        161.3610   184.8210   174.3380 ca         1 GZR      -0.017800
     18 C18        155.7340   188.7220   174.1040 ca         1 GZR      -0.067500
     19 C19        162.6600   185.2380   174.6560 ca         1 GZR      -0.174000
     20 C23        163.5900   183.4940   173.2750 ca         1 GZR      -0.026200
     21 C25        155.4580   190.9770   174.8120 ca         1 GZR       0.168000
     22 C27        164.8440   182.4750   171.3700 cc         1 GZR      -0.223000
     23 C29        166.0350   181.8100   171.2720 cd         1 GZR       0.249300
     24 C30        165.2840   186.1150   175.1990 c3         1 GZR       0.147900
     25 C31        166.6830   181.2300   170.0610 c3         1 GZR      -0.106400
     26 F01        155.4000   192.3030   174.5140 f          1 GZR      -0.186000
     27 N04        156.7580   186.1430   175.0130 n          1 GZR      -0.415800
     28 N05        164.7040   182.8270   172.7050 na         1 GZR      -0.079300
     29 N06        166.6260   181.7400   172.5230 nd         1 GZR      -0.683000
     30 O02        158.3300   187.4390   176.0480 o          1 GZR      -0.549000
     31 H1         159.3280   185.1230   172.3850 hc         1 GZR       0.059700
     32 H2         158.3530   186.5660   172.5700 hc         1 GZR       0.059700
     33 H3         160.4100   185.9040   175.9540 ha         1 GZR       0.198000
     34 H5         155.2450   188.9090   177.4460 ha         1 GZR       0.117500
     35 H6         160.2070   183.3350   173.2860 ha         1 GZR       0.123000
     36 H7         155.1270   191.3150   176.8990 ha         1 GZR       0.131500
     37 H8         155.7960   190.4210   172.7700 ha         1 GZR       0.131500
     38 H9         162.1780   182.1920   172.3520 ha         1 GZR       0.130000
     39 H10        165.9520   182.4860   174.4090 h5         1 GZR       0.060100
     40 H11        155.4840   184.6910   174.2460 h1         1 GZR       0.046200
     41 H12        156.9270   184.0500   175.0140 h1         1 GZR       0.046200
     42 H13        156.6000   185.1270   172.2110 hc         1 GZR       0.050200
     43 H14        157.4730   183.7120   172.7900 hc         1 GZR       0.050200
     44 H15        154.7410   186.3620   175.2000 h1         1 GZR       0.050700
     45 H17        155.5690   185.2930   177.2480 hc         1 GZR       0.048033
     46 H18        156.3770   186.7920   177.7340 hc         1 GZR       0.048033
     47 H19        154.6090   186.7280   177.6120 hc         1 GZR       0.048033
     48 H20        155.9090   188.0030   173.3130 ha         1 GZR       0.117500
     49 H21        162.7870   186.0850   175.3140 ha         1 GZR       0.128000
     50 H22        164.1020   182.7400   170.6380 h4         1 GZR       0.155000
     51 H23        166.3630   186.2370   175.2380 h1         1 GZR       0.048033
     52 H24        164.8250   187.0130   174.7780 h1         1 GZR       0.048033
     53 H25        164.8950   185.9410   176.2050 h1         1 GZR       0.048033
     54 H26        166.8610   180.1600   170.1860 hc         1 GZR       0.042367
     55 H27        166.0540   181.3720   169.1810 hc         1 GZR       0.042367
     56 H28        167.6500   181.7020   169.8680 hc         1 GZR       0.042367
     57 O03        165.0530   184.9820   174.3600 os         1 GZR      -0.341100
@<TRIPOS>BOND
     1     1    12 1   
     2     1    14 1   
     3     1    31 1   
     4     1    32 1   
     5     2     4 ar  
     6     2    13 1   
     7     2    18 ar  
     8     3    14 2   
     9     3    17 1   
    10     3    33 1   
    11     4     6 ar  
    12     4    34 1   
    13     5     9 ar  
    14     5    17 ar  
    15     5    35 1   
    16     6    21 ar  
    17     6    36 1   
    18     7    18 ar  
    19     7    21 ar  
    20     7    37 1   
    21     8    19 ar  
    22     8    20 ar  
    23     8    57 1   
    24     9    20 ar  
    25     9    38 1   
    26    10    28 1   
    27    10    29 2   
    28    10    39 1   
    29    11    12 1   
    30    11    27 1   
    31    11    40 1   
    32    11    41 1   
    33    12    42 1   
    34    12    43 1   
    35    13    16 1   
    36    13    27 1   
    37    13    44 1   
    38    14    15 1   
    39    15    27 1   
    40    15    30 2   
    41    16    45 1   
    42    16    46 1   
    43    16    47 1   
    44    17    19 ar  
    45    18    48 1   
    46    19    49 1   
    47    20    28 1   
    48    21    26 1   
    49    22    23 2   
    50    22    28 1   
    51    22    50 1   
    52    23    25 1   
    53    23    29 1   
    54    24    51 1   
    55    24    52 1   
    56    24    53 1   
    57    24    57 1   
    58    25    54 1   
    59    25    55 1   
    60    25    56 1   
@<TRIPOS>SUBSTRUCTURE
     1 GZR         1 TEMP              0 ****  ****    0 ROOT
