@<TRIPOS>MOLECULE
GZR
   57    60     1     0     0
SMALL
No Charge or Current Charge


@<TRIPOS>ATOM
      1 C10        158.5020   184.5400   173.2690 c6         1 GZR      -0.037200
      2 C13        155.6460   188.2580   175.6330 ca         1 GZR      -0.093300
      3 C15        160.1740   185.4110   174.9510 ce         1 GZR      -0.114200
      4 C17        155.7430   188.8670   176.9070 ca         1 GZR      -0.067500
      5 C20        161.4200   183.4120   174.0520 ca         1 GZR      -0.126000
      6 C21        156.0170   190.2420   177.0180 ca         1 GZR      -0.147500
      7 C22        156.1070   190.4260   174.5960 ca         1 GZR      -0.147500
      8 C24        163.7290   184.9780   173.6620 ca         1 GZR       0.141100
      9 C26        162.5830   182.8290   173.5250 ca         1 GZR      -0.083000
     10 C28        166.1620   183.1230   173.3090 cc         1 GZR       0.430400
     11 C07        156.1010   185.2520   173.5580 c6         1 GZR       0.106000
     12 C08        157.2800   185.1590   172.5770 c6         1 GZR      -0.084400
     13 C09        155.3480   186.7610   175.4460 c3         1 GZR       0.176000
     14 C11        158.8690   185.3330   174.5350 cf         1 GZR      -0.160400
     15 C12        157.7790   186.0730   175.2750 c          1 GZR       0.555200
     16 C14        154.8180   186.0160   176.6900 c3         1 GZR      -0.111100
     17 C16        161.3940   184.7780   174.3790 ca         1 GZR      -0.017800
     18 C18        155.8320   189.0530   174.4810 ca         1 GZR      -0.067500
     19 C19        162.5520   185.5530   174.1930 ca         1 GZR      -0.174000
     20 C23        163.7450   183.6010   173.3250 ca         1 GZR      -0.026200
     21 C25        156.1980   191.0170   175.8640 ca         1 GZR       0.168000
     22 C27        164.8890   182.0790   171.7730 cc         1 GZR      -0.223000
     23 C29        166.2060   181.7040   171.6720 cd         1 GZR       0.249300
     24 C30        164.9360   187.1420   173.7410 c3         1 GZR       0.147900
     25 C31        166.8010   180.7270   170.6980 c3         1 GZR      -0.106400
     26 F01        156.4630   192.3370   175.9740 f          1 GZR      -0.186000
     27 N04        156.4470   186.0040   174.7880 n          1 GZR      -0.415800
     28 N05        164.8900   182.9880   172.8010 na         1 GZR      -0.079300
     29 N06        166.9900   182.3430   172.6200 nd         1 GZR      -0.683000
     30 O02        158.0440   186.7010   176.2920 o          1 GZR      -0.549000
     31 H1         158.2900   183.4960   173.5380 hc         1 GZR       0.059700
     32 H2         159.3420   184.5260   172.5620 hc         1 GZR       0.059700
     33 H3         160.3980   186.0340   175.8190 ha         1 GZR       0.198000
     34 H5         155.6160   188.2860   177.8160 ha         1 GZR       0.117500
     35 H6         160.5410   182.7940   174.2190 ha         1 GZR       0.123000
     36 H7         156.0930   190.7060   177.9980 ha         1 GZR       0.131500
     37 H8         156.2490   191.0320   173.7040 ha         1 GZR       0.131500
     38 H9         162.5820   181.7680   173.2860 ha         1 GZR       0.130000
     39 H10        166.4070   183.7600   174.1510 h5         1 GZR       0.060100
     40 H11        155.2550   185.7300   173.0450 h1         1 GZR       0.046200
     41 H12        155.7830   184.2390   173.8430 h1         1 GZR       0.046200
     42 H13        157.5310   186.1620   172.2050 hc         1 GZR       0.050200
     43 H14        156.9950   184.5580   171.7030 hc         1 GZR       0.050200
     44 H15        154.4990   186.7470   174.7500 h1         1 GZR       0.050700
     45 H17        154.5060   185.0000   176.4200 hc         1 GZR       0.048033
     46 H18        155.5890   185.9380   177.4640 hc         1 GZR       0.048033
     47 H19        153.9480   186.5350   177.1100 hc         1 GZR       0.048033
     48 H20        155.7650   188.6010   173.4930 ha         1 GZR       0.117500
     49 H21        162.5130   186.6060   174.4570 ha         1 GZR       0.128000
     50 H22        164.0100   181.7870   171.2130 h4         1 GZR       0.155000
     51 H23        165.9290   187.5360   173.4900 h1         1 GZR       0.048033
     52 H24        164.1920   187.7000   173.1590 h1         1 GZR       0.048033
     53 H25        164.7590   187.3240   174.8090 h1         1 GZR       0.048033
     54 H26        167.2540   179.8780   171.2220 hc         1 GZR       0.042367
     55 H27        166.0360   180.3330   170.0180 hc         1 GZR       0.042367
     56 H28        167.5770   181.2040   170.0880 hc         1 GZR       0.042367
     57 O03        164.8690   185.7350   173.4440 os         1 GZR      -0.341100
@<TRIPOS>BOND
     1     1    12 1   
     2     1    14 1   
     3     1    31 1   
     4     1    32 1   
     5     2     4 ar  
     6     2    13 1   
     7     2    18 ar  
     8     3    14 2   
     9     3    17 1   
    10     3    33 1   
    11     4     6 ar  
    12     4    34 1   
    13     5     9 ar  
    14     5    17 ar  
    15     5    35 1   
    16     6    21 ar  
    17     6    36 1   
    18     7    18 ar  
    19     7    21 ar  
    20     7    37 1   
    21     8    19 ar  
    22     8    20 ar  
    23     8    57 1   
    24     9    20 ar  
    25     9    38 1   
    26    10    28 1   
    27    10    29 2   
    28    10    39 1   
    29    11    12 1   
    30    11    27 1   
    31    11    40 1   
    32    11    41 1   
    33    12    42 1   
    34    12    43 1   
    35    13    16 1   
    36    13    27 1   
    37    13    44 1   
    38    14    15 1   
    39    15    27 1   
    40    15    30 2   
    41    16    45 1   
    42    16    46 1   
    43    16    47 1   
    44    17    19 ar  
    45    18    48 1   
    46    19    49 1   
    47    20    28 1   
    48    21    26 1   
    49    22    23 2   
    50    22    28 1   
    51    22    50 1   
    52    23    25 1   
    53    23    29 1   
    54    24    51 1   
    55    24    52 1   
    56    24    53 1   
    57    24    57 1   
    58    25    54 1   
    59    25    55 1   
    60    25    56 1   
@<TRIPOS>SUBSTRUCTURE
     1 GZR         1 TEMP              0 ****  ****    0 ROOT
