@<TRIPOS>MOLECULE
GZS
   39    40     1     0     0
SMALL
No Charge or Current Charge


@<TRIPOS>ATOM
      1 C43         28.2640   -21.3460     7.7390 c          1 GZS       0.714000
      2 O64         27.6890   -22.2620     7.1720 o          1 GZS      -0.739000
      3 C44         29.5090   -20.7440     7.0660 c3         1 GZS      -0.215400
      4 C45         29.1220   -19.6270     6.0610 c3         1 GZS      -0.045400
      5 C46         28.4300   -18.4010     6.7020 c3         1 GZS       0.184800
      6 N47         28.2020   -17.3660     5.6800 n7         1 GZS      -0.849300
      7 S48         27.4650   -15.9510     6.1640 sy         1 GZS       1.126600
      8 O62         28.5410   -15.0890     6.6600 o          1 GZS      -0.553500
      9 O63         26.3110   -16.3390     6.9800 o          1 GZS      -0.553500
     10 C49         26.9100   -15.3470     4.5700 ca         1 GZS      -0.308500
     11 C54         27.8190   -14.6840     3.7200 ca         1 GZS       0.025500
     12 C53         27.3890   -14.2120     2.4690 ca         1 GZS      -0.192500
     13 C52         26.0570   -14.4070     2.0590 ca         1 GZS       0.180100
     14 O55         25.6110   -13.9410     0.8430 os         1 GZS      -0.255200
     15 C56         26.3720   -13.9930    -0.3030 ca         1 GZS       0.096100
     16 C61         26.2880   -12.9340    -1.2230 ca         1 GZS      -0.113500
     17 C60         27.0430   -12.9680    -2.4090 ca         1 GZS      -0.103500
     18 C59         27.8780   -14.0670    -2.6790 ca         1 GZS      -0.113000
     19 C58         27.9530   -15.1340    -1.7670 ca         1 GZS      -0.103500
     20 C57         27.1980   -15.1010    -0.5810 ca         1 GZS      -0.113500
     21 C51         25.1510   -15.0570     2.9110 ca         1 GZS      -0.192500
     22 C50         25.5730   -15.5330     4.1640 ca         1 GZS       0.025500
     23 OXT         27.8830   -20.8560     8.7910 o          1 GZS      -0.739000
     24 H1          30.0160   -21.5070     6.4610 hc         1 GZS       0.022700
     25 H2          30.1620   -20.2720     7.8100 hc         1 GZS       0.022700
     26 H3          28.4680   -20.0490     5.2880 hc         1 GZS       0.028200
     27 H4          30.0340   -19.2900     5.5520 hc         1 GZS       0.028200
     28 H5          29.0710   -18.0120     7.5050 h1         1 GZS       0.066200
     29 H6          27.4810   -18.7190     7.1570 h1         1 GZS       0.066200
     30 H7          27.5590   -17.7090     4.9690 hn         1 GZS       0.464000
     31 H8          28.8540   -14.5340     4.0250 ha         1 GZS       0.140500
     32 H9          28.0910   -13.6920     1.8220 ha         1 GZS       0.126500
     33 H10         25.6410   -12.0860    -1.0130 ha         1 GZS       0.131000
     34 H11         26.9810   -12.1440    -3.1170 ha         1 GZS       0.115500
     35 H12         28.4620   -14.0930    -3.5960 ha         1 GZS       0.113000
     36 H13         28.5940   -15.9870    -1.9800 ha         1 GZS       0.115500
     37 H14         27.2530   -15.9350     0.1150 ha         1 GZS       0.131000
     38 H15         24.1200   -15.1960     2.5960 ha         1 GZS       0.126500
     39 H16         24.8580   -16.0390     4.8110 ha         1 GZS       0.140500
@<TRIPOS>BOND
     1     1     2 1   
     2     1     3 1   
     3     1    23 1   
     4     3     4 1   
     5     3    24 1   
     6     3    25 1   
     7     4     5 1   
     8     4    26 1   
     9     4    27 1   
    10     5     6 1   
    11     5    28 1   
    12     5    29 1   
    13     6     7 1   
    14     6    30 1   
    15     7     8 2   
    16     7     9 2   
    17     7    10 1   
    18    10    11 ar  
    19    10    22 ar  
    20    11    12 ar  
    21    11    31 1   
    22    12    13 ar  
    23    12    32 1   
    24    13    14 1   
    25    13    21 ar  
    26    14    15 1   
    27    15    16 ar  
    28    15    20 ar  
    29    16    17 ar  
    30    16    33 1   
    31    17    18 ar  
    32    17    34 1   
    33    18    19 ar  
    34    18    35 1   
    35    19    20 ar  
    36    19    36 1   
    37    20    37 1   
    38    21    22 ar  
    39    21    38 1   
    40    22    39 1   
@<TRIPOS>SUBSTRUCTURE
     1 GZS         1 TEMP              0 ****  ****    0 ROOT
