@<TRIPOS>MOLECULE
GZS
   39    40     1     0     0
SMALL
bcc


@<TRIPOS>ATOM
      1 C43         28.5050   -21.0110     8.5080 c          1 GZS       0.924600
      2 O64         27.3300   -21.1020     8.0990 o          1 GZS      -0.844300
      3 C44         29.5590   -20.4440     7.5310 c3         1 GZS      -0.215400
      4 C45         29.0130   -19.6560     6.3490 c3         1 GZS      -0.045400
      5 C46         28.4280   -18.3200     6.7750 c3         1 GZS       0.184800
      6 N47         27.8620   -17.6370     5.6030 n7         1 GZS      -0.794100
      7 S48         27.3510   -16.0770     5.8380 sy         1 GZS       1.268200
      8 O62         28.5350   -15.2980     6.1760 o          1 GZS      -0.624300
      9 O63         26.2100   -15.9930     6.7430 o          1 GZS      -0.624300
     10 C49         26.8120   -15.6580     4.2140 ca         1 GZS      -0.308500
     11 C54         27.7360   -15.1900     3.2910 ca         1 GZS       0.007500
     12 C53         27.3290   -14.8620     2.0100 ca         1 GZS      -0.210500
     13 C52         25.9900   -15.0140     1.6550 ca         1 GZS       0.180100
     14 O55         25.5050   -14.7230     0.4290 os         1 GZS      -0.255200
     15 C56         26.3630   -14.2420    -0.5350 ca         1 GZS       0.096100
     16 C61         26.5250   -12.8720    -0.6730 ca         1 GZS      -0.131500
     17 C60         27.3620   -12.3890    -1.6690 ca         1 GZS      -0.121500
     18 C59         28.0290   -13.2680    -2.5120 ca         1 GZS      -0.131000
     19 C58         27.8540   -14.6380    -2.3620 ca         1 GZS      -0.121500
     20 C57         27.0190   -15.1330    -1.3690 ca         1 GZS      -0.131500
     21 C51         25.0640   -15.4840     2.5860 ca         1 GZS      -0.210500
     22 C50         25.4740   -15.8030     3.8660 ca         1 GZS       0.007500
     23 OXT         28.9330   -21.3670     9.6250 o          1 GZS      -0.844300
     24 H1          30.1370   -21.2930     7.1490 hc         1 GZS       0.022700
     25 H2          30.2790   -19.8370     8.0880 hc         1 GZS       0.022700
     26 H3          28.2470   -20.2450     5.8410 hc         1 GZS       0.028200
     27 H4          29.8060   -19.4720     5.6190 hc         1 GZS       0.028200
     28 H5          29.2180   -17.6910     7.1890 h1         1 GZS       0.066200
     29 H6          27.6760   -18.4710     7.5540 h1         1 GZS       0.066200
     30 H7          27.1190   -18.1880     5.1780 hn         1 GZS       0.408800
     31 H8          28.7770   -15.0690     3.5590 ha         1 GZS       0.158500
     32 H9          28.0600   -14.4930     1.3030 ha         1 GZS       0.144500
     33 H10         26.0010   -12.1930    -0.0120 ha         1 GZS       0.149000
     34 H11         27.4930   -11.3210    -1.7850 ha         1 GZS       0.133500
     35 H12         28.6820   -12.8870    -3.2870 ha         1 GZS       0.131000
     36 H13         28.3700   -15.3270    -3.0180 ha         1 GZS       0.133500
     37 H14         26.8780   -16.2000    -1.2460 ha         1 GZS       0.149000
     38 H15         24.0250   -15.5940     2.3030 ha         1 GZS       0.144500
     39 H16         24.7470   -16.1590     4.5830 ha         1 GZS       0.158500
@<TRIPOS>BOND
     1     1     2 1   
     2     1     3 1   
     3     1    23 1   
     4     3     4 1   
     5     3    24 1   
     6     3    25 1   
     7     4     5 1   
     8     4    26 1   
     9     4    27 1   
    10     5     6 1   
    11     5    28 1   
    12     5    29 1   
    13     6     7 1   
    14     6    30 1   
    15     7     8 2   
    16     7     9 2   
    17     7    10 1   
    18    10    11 ar  
    19    10    22 ar  
    20    11    12 ar  
    21    11    31 1   
    22    12    13 ar  
    23    12    32 1   
    24    13    14 1   
    25    13    21 ar  
    26    14    15 1   
    27    15    16 ar  
    28    15    20 ar  
    29    16    17 ar  
    30    16    33 1   
    31    17    18 ar  
    32    17    34 1   
    33    18    19 ar  
    34    18    35 1   
    35    19    20 ar  
    36    19    36 1   
    37    20    37 1   
    38    21    22 ar  
    39    21    38 1   
    40    22    39 1   
@<TRIPOS>SUBSTRUCTURE
     1 GZS         1 TEMP              0 ****  ****    0 ROOT
