@<TRIPOS>MOLECULE
GZT
   35    37     1     0     0
SMALL
bcc


@<TRIPOS>ATOM
      1 CAA          5.1220     2.5380    -0.9980 c3         1 GZT       0.101300
      2 NAB          4.2280     1.5260    -0.4940 ns         1 GZT      -0.566900
      3 CAC          4.2880     0.2580    -0.9080 c          1 GZT       0.686300
      4 OAK          5.1040    -0.1250    -1.7430 o          1 GZT      -0.629100
      5 CAD          3.3080    -0.7050    -0.3110 cc         1 GZT      -0.295400
      6 CAE          2.3380    -0.3130     0.6850 c          1 GZT       0.709700
      7 OAF          2.1970     0.8190     1.1500 o          1 GZT      -0.661500
      8 CAG          3.3570    -2.0040    -0.7420 cd         1 GZT       0.028000
      9 CAH          2.4860    -2.9810    -0.2380 cd         1 GZT      -0.250000
     10 CAI          1.5810    -2.6040     0.7020 cc         1 GZT       0.027600
     11 NAJ          1.5060    -1.3300     1.1430 n          1 GZT      -0.329000
     12 CAW          0.4890    -0.9680     2.1310 c3         1 GZT       0.139300
     13 CAR         -0.6580    -0.2090     1.5170 ca         1 GZT      -0.105300
     14 CAQ         -1.4460    -0.8350     0.5410 ca         1 GZT      -0.085000
     15 CAP         -2.4830    -0.1000     0.0340 ca         1 GZT       0.050100
     16 OAU         -3.4040    -0.4500    -0.9160 os         1 GZT      -0.329900
     17 CAM         -4.2400     0.6230    -1.0760 c5         1 GZT       0.791200
     18 FAL         -4.2240     1.0380    -2.3450 f          1 GZT      -0.202300
     19 FAV         -5.5010     0.2700    -0.8160 f          1 GZT      -0.202300
     20 OAN         -3.8490     1.6350    -0.2410 os         1 GZT      -0.327900
     21 CAO         -2.7590     1.1840     0.4510 ca         1 GZT       0.064100
     22 CAT         -2.0110     1.8190     1.4070 ca         1 GZT      -0.094000
     23 CAS         -0.9410     1.0870     1.9300 ca         1 GZT      -0.085000
     24 H1           4.8500     3.4880    -0.5470 h1         1 GZT       0.038367
     25 H2           6.1620     2.3250    -0.7460 h1         1 GZT       0.038367
     26 H3           5.0500     2.6390    -2.0810 h1         1 GZT       0.038367
     27 H4           3.5310     1.7640     0.1990 hn         1 GZT       0.352500
     28 H5           4.0900    -2.2790    -1.4890 ha         1 GZT       0.169000
     29 H6           2.5250    -4.0060    -0.5740 ha         1 GZT       0.159000
     30 H7           0.8800    -3.3000     1.1400 h4         1 GZT       0.152000
     31 H8           0.1350    -1.8960     2.5780 h1         1 GZT       0.073200
     32 H9           0.9540    -0.3850     2.9240 h1         1 GZT       0.073200
     33 H10         -1.2540    -1.8460     0.2070 ha         1 GZT       0.155000
     34 H11         -2.2250     2.8260     1.7340 ha         1 GZT       0.165000
     35 H12         -0.3160     1.5500     2.6810 ha         1 GZT       0.153000
@<TRIPOS>BOND
     1     1     2 1   
     2     1    24 1   
     3     1    25 1   
     4     1    26 1   
     5     2     3 1   
     6     2    27 1   
     7     3     4 2   
     8     3     5 1   
     9     5     6 1   
    10     5     8 2   
    11     6     7 2   
    12     6    11 1   
    13     8     9 1   
    14     8    28 1   
    15     9    10 2   
    16     9    29 1   
    17    10    11 1   
    18    10    30 1   
    19    11    12 1   
    20    12    13 1   
    21    12    31 1   
    22    12    32 1   
    23    13    14 ar  
    24    13    23 ar  
    25    14    15 ar  
    26    14    33 1   
    27    15    16 1   
    28    15    21 ar  
    29    16    17 1   
    30    17    18 1   
    31    17    19 1   
    32    17    20 1   
    33    20    21 1   
    34    21    22 ar  
    35    22    23 ar  
    36    22    34 1   
    37    23    35 1   
@<TRIPOS>SUBSTRUCTURE
     1 GZT         1 TEMP              0 ****  ****    0 ROOT
