@<TRIPOS>MOLECULE
GZT
   35    37     1     0     0
SMALL
No Charge or Current Charge


@<TRIPOS>ATOM
      1 CAA          5.6500     2.5320    -0.5300 c3         1 GZT       0.101300
      2 NAB          4.6500     1.5070    -0.2300 ns         1 GZT      -0.499900
      3 CAC          4.5880     0.2700    -0.8190 c          1 GZT       0.619300
      4 OAK          5.4110    -0.0490    -1.6670 o          1 GZT      -0.629100
      5 CAD          3.4890    -0.6330    -0.3750 cc         1 GZT      -0.295400
      6 CAE          2.4980    -0.2240     0.6600 c          1 GZT       0.567200
      7 OAF          2.5090     0.8660     1.2190 o          1 GZT      -0.586000
      8 CAG          3.4250    -1.8860    -0.9730 cd         1 GZT      -0.022000
      9 CAH          2.3900    -2.8030    -0.5920 cd         1 GZT      -0.300000
     10 CAI          1.4710    -2.4350     0.3600 cc         1 GZT      -0.022400
     11 NAJ          1.5120    -1.1880     0.9770 n          1 GZT      -0.262000
     12 CAW          0.4820    -0.8420     1.9870 c3         1 GZT       0.139300
     13 CAR         -0.7450    -0.1680     1.3830 ca         1 GZT      -0.105300
     14 CAQ         -1.7980    -0.9520     0.8560 ca         1 GZT      -0.067000
     15 CAP         -2.9030    -0.2930     0.3040 ca         1 GZT       0.050100
     16 OAU         -3.9930    -0.8930    -0.2410 os         1 GZT      -0.353100
     17 CAM         -4.8120     0.2550    -0.6540 c5         1 GZT       0.595000
     18 FAL         -5.0300     0.2040    -2.0280 f          1 GZT      -0.081000
     19 FAV         -6.0490     0.2010    -0.0160 f          1 GZT      -0.081000
     20 OAN         -4.1320     1.5100    -0.3080 os         1 GZT      -0.351100
     21 CAO         -2.9830     1.0710     0.2660 ca         1 GZT       0.064100
     22 CAT         -1.9620     1.8800     0.7770 ca         1 GZT      -0.076000
     23 CAS         -0.8330     1.2480     1.3410 ca         1 GZT      -0.067000
     24 H1           5.4600     3.4200     0.0860 h1         1 GZT       0.038367
     25 H2           6.6540     2.1450    -0.3090 h1         1 GZT       0.038367
     26 H3           5.5900     2.8080    -1.5910 h1         1 GZT       0.038367
     27 H4           3.9340     1.7010     0.4650 hn         1 GZT       0.352500
     28 H5           4.1490    -2.1870    -1.7300 ha         1 GZT       0.219000
     29 H6           2.3320    -3.7850    -1.0560 ha         1 GZT       0.209000
     30 H7           0.6530    -3.0600     0.7080 h4         1 GZT       0.202000
     31 H8           0.1680    -1.7570     2.5050 h1         1 GZT       0.073200
     32 H9           0.9170    -0.1930     2.7590 h1         1 GZT       0.073200
     33 H10         -1.7590    -2.0380     0.8740 ha         1 GZT       0.137000
     34 H11         -2.0390     2.9640     0.7390 ha         1 GZT       0.147000
     35 H12         -0.0260     1.8570     1.7420 ha         1 GZT       0.135000
@<TRIPOS>BOND
     1     1     2 1   
     2     1    24 1   
     3     1    25 1   
     4     1    26 1   
     5     2     3 1   
     6     2    27 1   
     7     3     4 2   
     8     3     5 1   
     9     5     6 1   
    10     5     8 2   
    11     6     7 2   
    12     6    11 1   
    13     8     9 1   
    14     8    28 1   
    15     9    10 2   
    16     9    29 1   
    17    10    11 1   
    18    10    30 1   
    19    11    12 1   
    20    12    13 1   
    21    12    31 1   
    22    12    32 1   
    23    13    14 ar  
    24    13    23 ar  
    25    14    15 ar  
    26    14    33 1   
    27    15    16 1   
    28    15    21 ar  
    29    16    17 1   
    30    17    18 1   
    31    17    19 1   
    32    17    20 1   
    33    20    21 1   
    34    21    22 ar  
    35    22    23 ar  
    36    22    34 1   
    37    23    35 1   
@<TRIPOS>SUBSTRUCTURE
     1 GZT         1 TEMP              0 ****  ****    0 ROOT
