@<TRIPOS>MOLECULE
GZV
   24    24     1     0     0
SMALL
No Charge or Current Charge


@<TRIPOS>ATOM
      1 C10         36.2510    79.9330    63.7680 ce         1 GZV      -0.521200
      2 C13         37.9210    81.4760    64.9610 c          1 GZV       0.707200
      3 C01         30.9840    77.2230    61.7780 c3         1 GZV      -0.031800
      4 C02         32.3530    77.1960    62.4500 ca         1 GZV      -0.154300
      5 C03         32.7000    76.1260    63.2940 ca         1 GZV      -0.065000
      6 C04         33.9600    76.1030    63.9110 ca         1 GZV      -0.183000
      7 C05         34.8740    77.1460    63.6970 ca         1 GZV       0.221000
      8 C07         34.5420    78.2310    62.8620 ca         1 GZV      -0.189600
      9 C08         35.5110    79.3450    62.6190 c          1 GZV       0.600900
     10 C11         37.2050    80.9140    63.7120 cf         1 GZV       0.166900
     11 C16         33.2790    78.2400    62.2350 ca         1 GZV       0.222000
     12 F17         32.9220    79.2790    61.4430 f          1 GZV      -0.166000
     13 O09         35.7320    79.7640    61.4900 o          1 GZV      -0.640100
     14 O12         37.5200    81.3990    62.4940 oh         1 GZV      -0.515100
     15 O14         38.7660    82.3550    64.8180 o          1 GZV      -0.681000
     16 O15         37.6240    81.0280    66.0650 o          1 GZV      -0.681000
     17 H1          35.9810    79.5400    64.7460 ha         1 GZV       0.219000
     18 H3          31.0830    77.2600    60.6870 hc         1 GZV       0.041033
     19 H4          30.3900    76.3360    62.0250 hc         1 GZV       0.041033
     20 H5          30.4100    78.1030    62.0930 hc         1 GZV       0.041033
     21 H6          32.0000    75.3110    63.4690 ha         1 GZV       0.107000
     22 H7          34.2350    75.2700    64.5530 ha         1 GZV       0.129000
     23 H9          36.9260    80.8930    61.8790 ho         1 GZV       0.491000
     24 F06         36.0940    77.0580    64.2700 f          1 GZV      -0.160000
@<TRIPOS>BOND
     1     1     9 1   
     2     1    10 2   
     3     1    17 1   
     4     2    10 1   
     5     2    15 1   
     6     2    16 1   
     7     3     4 1   
     8     3    18 1   
     9     3    19 1   
    10     3    20 1   
    11     4     5 ar  
    12     4    11 ar  
    13     5     6 ar  
    14     5    21 1   
    15     6     7 ar  
    16     6    22 1   
    17     7     8 ar  
    18     7    24 1   
    19     8     9 1   
    20     8    11 ar  
    21     9    13 2   
    22    10    14 1   
    23    11    12 1   
    24    14    23 1   
@<TRIPOS>SUBSTRUCTURE
     1 GZV         1 TEMP              0 ****  ****    0 ROOT
