@<TRIPOS>MOLECULE
GZV
   24    24     1     0     0
SMALL
abcg2


@<TRIPOS>ATOM
      1 C10         36.2200    79.8630    63.8250 ce         1 GZV      -0.521200
      2 C13         37.8310    81.5280    64.8980 c          1 GZV       0.707200
      3 C01         31.0310    77.3200    61.7960 c3         1 GZV      -0.031800
      4 C02         32.3740    77.2100    62.4600 ca         1 GZV      -0.154300
      5 C03         32.7250    76.1270    63.2640 ca         1 GZV      -0.065000
      6 C04         33.9670    76.0460    63.8830 ca         1 GZV      -0.183000
      7 C05         34.8650    77.0760    63.6950 ca         1 GZV       0.221000
      8 C07         34.5900    78.1870    62.9000 ca         1 GZV      -0.189600
      9 C08         35.5740    79.2930    62.6850 c          1 GZV       0.600900
     10 C11         37.1170    80.8880    63.6880 cf         1 GZV       0.166900
     11 C16         33.3300    78.2040    62.3000 ca         1 GZV       0.222000
     12 F17         32.9960    79.2730    61.5440 f          1 GZV      -0.166000
     13 O09         35.7850    79.6960    61.5200 o          1 GZV      -0.640100
     14 O12         37.4280    81.3870    62.5030 oh         1 GZV      -0.515100
     15 O14         38.6990    82.3850    64.6340 o          1 GZV      -0.681000
     16 O15         37.4620    81.1120    66.0190 o          1 GZV      -0.681000
     17 H1          36.0030    79.5010    64.8140 ha         1 GZV       0.219000
     18 H3          31.1330    77.4020    60.7120 hc         1 GZV       0.041033
     19 H4          30.4260    76.4420    62.0200 hc         1 GZV       0.041033
     20 H5          30.4940    78.2070    62.1390 hc         1 GZV       0.041033
     21 H6          32.0080    75.3290    63.4080 ha         1 GZV       0.107000
     22 H7          34.2410    75.2010    64.4980 ha         1 GZV       0.129000
     23 H9          36.8850    80.8730    61.8340 ho         1 GZV       0.491000
     24 F06         36.0810    76.9800    64.2810 f          1 GZV      -0.160000
@<TRIPOS>BOND
     1     1     9 1   
     2     1    10 2   
     3     1    17 1   
     4     2    10 1   
     5     2    15 1   
     6     2    16 1   
     7     3     4 1   
     8     3    18 1   
     9     3    19 1   
    10     3    20 1   
    11     4     5 ar  
    12     4    11 ar  
    13     5     6 ar  
    14     5    21 1   
    15     6     7 ar  
    16     6    22 1   
    17     7     8 ar  
    18     7    24 1   
    19     8     9 1   
    20     8    11 ar  
    21     9    13 2   
    22    10    14 1   
    23    11    12 1   
    24    14    23 1   
@<TRIPOS>SUBSTRUCTURE
     1 GZV         1 TEMP              0 ****  ****    0 ROOT
