@<TRIPOS>MOLECULE
GZW
   59    63     1     0     0
SMALL
abcg2


@<TRIPOS>ATOM
      1 CBA         -2.3340    -7.7280    -7.8140 c3         1 GZW       0.078900
      2 NAZ         -2.5690    -6.7520    -8.8610 na         1 GZW       0.121800
      3 CBB         -1.6440    -5.9710    -9.4710 cc         1 GZW      -0.163000
      4 NAY         -3.8110    -6.5320    -9.3170 nc         1 GZW      -0.507800
      5 CAX         -3.6860    -5.5850   -10.2460 cd         1 GZW       0.210900
      6 CAW         -2.3400    -5.1940   -10.3830 cd         1 GZW      -0.076400
      7 NAV         -1.8730    -4.2220   -11.2730 ns         1 GZW      -0.372100
      8 CAM         -0.5840    -3.8180   -11.3980 c          1 GZW       0.627300
      9 OAL          0.3360    -4.3310   -10.7610 o          1 GZW      -0.592100
     10 CAN         -0.3580    -2.6970   -12.3540 cc         1 GZW      -0.226400
     11 CAU         -1.1970    -1.6300   -12.3600 cd         1 GZW       0.002600
     12 CAO          0.7810    -2.6760   -13.2360 ca         1 GZW       0.073200
     13 CAP          1.7120    -3.7180   -13.3610 ca         1 GZW      -0.161000
     14 CAQ          2.7590    -3.6130   -14.2580 ca         1 GZW       0.385300
     15 CBD          3.7620    -4.7250   -14.4020 c6         1 GZW      -0.115000
     16 CBE          5.1770    -4.2730   -14.0030 c6         1 GZW      -0.067900
     17 CBF          6.1800    -5.4040   -14.2010 c6         1 GZW       0.159800
     18 NBG          6.1500    -5.8630   -15.5910 n7         1 GZW      -0.863400
     19 CBH          4.8350    -6.3960   -15.9530 c6         1 GZW       0.159800
     20 CBI          3.7770    -5.3060   -15.8260 c6         1 GZW      -0.067900
     21 NAR          2.9340    -2.5190   -15.0370 nb         1 GZW      -0.675000
     22 CAS          2.0600    -1.5350   -14.9370 ca         1 GZW       0.406900
     23 CAT          0.9650    -1.5500   -14.0640 ca         1 GZW      -0.237600
     24 CAB          0.0480    -0.4160   -14.0450 c          1 GZW       0.577600
     25 OAA          0.1630     0.5900   -14.7400 o          1 GZW      -0.526000
     26 NAC         -1.0190    -0.5340   -13.1550 n          1 GZW      -0.297000
     27 CAD         -1.9590     0.5860   -13.0720 c3         1 GZW       0.145300
     28 CAE         -1.3860     1.8040   -12.3850 ca         1 GZW      -0.092300
     29 CAJ         -0.4410     1.6880   -11.3730 ca         1 GZW      -0.085000
     30 CAI          0.0520     2.8200   -10.7360 ca         1 GZW       0.126000
     31 CL1          1.2450     2.6220    -9.4860 cl         1 GZW      -0.173000
     32 CAH         -0.4050     4.0840   -11.1030 ca         1 GZW       0.128000
     33 CL2          0.1940     5.5230   -10.3320 cl         1 GZW      -0.174000
     34 CAG         -1.3540     4.2030   -12.1130 ca         1 GZW      -0.092000
     35 CAF         -1.8350     3.0710   -12.7500 ca         1 GZW      -0.084000
     36 H1          -2.6940    -8.7060    -8.1310 h1         1 GZW       0.058367
     37 H2          -1.2650    -7.7790    -7.6240 h1         1 GZW       0.058367
     38 H3          -2.8500    -7.4300    -6.9020 h1         1 GZW       0.058367
     39 H4          -0.6010    -6.0220    -9.2260 h4         1 GZW       0.181000
     40 H5          -4.5460    -5.2160   -10.7820 h4         1 GZW       0.036100
     41 H6          -2.5580    -3.8230   -11.8970 hn         1 GZW       0.321500
     42 H7          -2.0540    -1.5760   -11.7050 h4         1 GZW       0.203000
     43 H8           1.6160    -4.6040   -12.7520 ha         1 GZW       0.147000
     44 H9           3.4630    -5.5250   -13.7190 hc         1 GZW       0.048700
     45 H10          5.4680    -3.4170   -14.6160 hc         1 GZW       0.057450
     46 H11          5.1820    -3.9510   -12.9590 hc         1 GZW       0.057450
     47 H12          5.9400    -6.2210   -13.4980 h1         1 GZW       0.028950
     48 H13          7.1880    -5.0580   -13.9680 h1         1 GZW       0.028950
     49 H14          6.8540    -6.5800   -15.7250 hn         1 GZW       0.408000
     50 H16          4.5500    -7.2460   -15.3100 h1         1 GZW       0.028950
     51 H17          4.8770    -6.7620   -16.9800 h1         1 GZW       0.028950
     52 H18          3.9920    -4.5050   -16.5380 hc         1 GZW       0.057450
     53 H19          2.7940    -5.7140   -16.0710 hc         1 GZW       0.057450
     54 H20          2.2100    -0.6700   -15.5730 h4         1 GZW       0.042100
     55 H21         -2.2690     0.8500   -14.0820 h1         1 GZW       0.071700
     56 H22         -2.8360     0.2280   -12.5340 h1         1 GZW       0.071700
     57 H23         -0.0670     0.7200   -11.0700 ha         1 GZW       0.134000
     58 H24         -1.7010     5.1860   -12.3990 ha         1 GZW       0.136000
     59 H25         -2.5630     3.1770   -13.5450 ha         1 GZW       0.123000
@<TRIPOS>BOND
     1     1     2 1   
     2     1    36 1   
     3     1    37 1   
     4     1    38 1   
     5     2     3 1   
     6     2     4 1   
     7     3     6 2   
     8     3    39 1   
     9     4     5 2   
    10     5     6 1   
    11     5    40 1   
    12     6     7 1   
    13     7     8 1   
    14     7    41 1   
    15     8     9 2   
    16     8    10 1   
    17    10    11 2   
    18    10    12 1   
    19    11    26 1   
    20    11    42 1   
    21    12    13 ar  
    22    12    23 ar  
    23    13    14 ar  
    24    13    43 1   
    25    14    15 1   
    26    14    21 ar  
    27    15    16 1   
    28    15    20 1   
    29    15    44 1   
    30    16    17 1   
    31    16    45 1   
    32    16    46 1   
    33    17    18 1   
    34    17    47 1   
    35    17    48 1   
    36    18    19 1   
    37    18    49 1   
    38    19    20 1   
    39    19    50 1   
    40    19    51 1   
    41    20    52 1   
    42    20    53 1   
    43    21    22 ar  
    44    22    23 ar  
    45    22    54 1   
    46    23    24 1   
    47    24    25 2   
    48    24    26 1   
    49    26    27 1   
    50    27    28 1   
    51    27    55 1   
    52    27    56 1   
    53    28    29 ar  
    54    28    35 ar  
    55    29    30 ar  
    56    29    57 1   
    57    30    31 1   
    58    30    32 ar  
    59    32    33 1   
    60    32    34 ar  
    61    34    35 ar  
    62    34    58 1   
    63    35    59 1   
@<TRIPOS>SUBSTRUCTURE
     1 GZW         1 TEMP              0 ****  ****    0 ROOT
