@<TRIPOS>MOLECULE
GZW
   59    63     1     0     0
SMALL
No Charge or Current Charge


@<TRIPOS>ATOM
      1 CBA         -2.2530    -7.0130    -7.3310 c3         1 GZW       0.078900
      2 NAZ         -2.4230    -5.9310    -8.3110 na         1 GZW       0.121800
      3 CBB         -1.4770    -5.5090    -9.2420 cc         1 GZW      -0.163000
      4 NAY         -3.6140    -5.2270    -8.3620 nc         1 GZW      -0.507800
      5 CAX         -3.4020    -4.3610    -9.3350 cd         1 GZW       0.210900
      6 CAW         -2.1150    -4.4970    -9.9000 cd         1 GZW      -0.076400
      7 NAV         -1.6300    -3.7090   -10.9400 ns         1 GZW      -0.372100
      8 CAM         -0.4000    -3.7690   -11.5850 c          1 GZW       0.627300
      9 OAL          0.4230    -4.6210   -11.2870 o          1 GZW      -0.592100
     10 CAN         -0.1820    -2.7160   -12.6400 cc         1 GZW      -0.226400
     11 CAU         -1.0690    -1.6440   -12.7460 cd         1 GZW       0.002600
     12 CAO          0.9770    -2.6880   -13.5700 ca         1 GZW       0.073200
     13 CAP          1.9020    -3.7490   -13.7060 ca         1 GZW      -0.161000
     14 CAQ          2.9820    -3.6430   -14.5970 ca         1 GZW       0.385300
     15 CBD          4.0000    -4.7880   -14.7460 c6         1 GZW      -0.115000
     16 CBE          5.4510    -4.3570   -14.3820 c6         1 GZW      -0.067900
     17 CBF          6.4440    -5.5350   -14.5440 c6         1 GZW       0.159800
     18 NBG          6.3840    -6.1080   -15.9110 n7         1 GZW      -0.863400
     19 CBH          5.0230    -6.5650   -16.2840 c6         1 GZW       0.159800
     20 CBI          3.9890    -5.4170   -16.1700 c6         1 GZW      -0.067900
     21 NAR          3.1820    -2.5560   -15.3690 nb         1 GZW      -0.675000
     22 CAS          2.2910    -1.5500   -15.2760 ca         1 GZW       0.406900
     23 CAT          1.1850    -1.5800   -14.4120 ca         1 GZW      -0.237600
     24 CAB          0.2330    -0.4450   -14.4370 c          1 GZW       0.577600
     25 OAA          0.4230     0.5300   -15.1530 o          1 GZW      -0.526000
     26 NAC         -0.8960    -0.5580   -13.6060 n          1 GZW      -0.297000
     27 CAD         -1.8950     0.5400   -13.5970 c3         1 GZW       0.145300
     28 CAE         -1.7490     1.4600   -12.3910 ca         1 GZW      -0.092300
     29 CAJ         -2.6490     1.3690   -11.3100 ca         1 GZW      -0.085000
     30 CAI         -2.5070     2.2100   -10.1920 ca         1 GZW       0.126000
     31 Cl1         -3.6520     2.0610    -8.8580 cl         1 GZW      -0.173000
     32 CAH         -1.4580     3.1520   -10.1500 ca         1 GZW       0.128000
     33 Cl2         -1.2490     4.2230    -8.7630 cl         1 GZW      -0.174000
     34 CAG         -0.5610     3.2470   -11.2270 ca         1 GZW      -0.092000
     35 CAF         -0.7050     2.4040   -12.3430 ca         1 GZW      -0.084000
     36 H1          -3.0150    -7.7840    -7.5000 h1         1 GZW       0.058367
     37 H2          -1.2570    -7.4580    -7.4380 h1         1 GZW       0.058367
     38 H3          -2.3620    -6.6090    -6.3170 h1         1 GZW       0.058367
     39 H4          -0.4920    -5.9480    -9.3390 h4         1 GZW       0.181000
     40 H5          -4.1820    -3.6600    -9.6050 h4         1 GZW       0.036100
     41 H6          -2.2480    -3.0030   -11.3110 hn         1 GZW       0.321500
     42 H7          -1.9530    -1.5090   -12.1300 h4         1 GZW       0.203000
     43 H8           1.8070    -4.6700   -13.1510 ha         1 GZW       0.147000
     44 H9           3.7160    -5.5820   -14.0420 hc         1 GZW       0.048700
     45 H10          5.7730    -3.5240   -15.0220 hc         1 GZW       0.057450
     46 H11          5.4850    -3.9870   -13.3480 hc         1 GZW       0.057450
     47 H12          6.2040    -6.3190   -13.8100 h1         1 GZW       0.028950
     48 H13          7.4660    -5.1870   -14.3370 h1         1 GZW       0.028950
     49 H14          7.0280    -6.9080   -15.9630 hn         1 GZW       0.408000
     50 H16          4.7230    -7.3930   -15.6240 h1         1 GZW       0.028950
     51 H17          5.0350    -6.9500   -17.3140 h1         1 GZW       0.028950
     52 H18          4.2160    -4.6520   -16.9250 hc         1 GZW       0.057450
     53 H19          2.9870    -5.7990   -16.4050 hc         1 GZW       0.057450
     54 H20          2.4740    -0.7000   -15.9330 h4         1 GZW       0.042100
     55 H21         -1.8240     1.1370   -14.5160 h1         1 GZW       0.071700
     56 H22         -2.9000     0.0980   -13.6010 h1         1 GZW       0.071700
     57 H23         -3.4620     0.6470   -11.3310 ha         1 GZW       0.134000
     58 H24          0.2470     3.9730   -11.1950 ha         1 GZW       0.136000
     59 H25         -0.0030     2.4860   -13.1700 ha         1 GZW       0.123000
@<TRIPOS>BOND
     1     1     2 1   
     2     1    36 1   
     3     1    37 1   
     4     1    38 1   
     5     2     3 1   
     6     2     4 1   
     7     3     6 2   
     8     3    39 1   
     9     4     5 2   
    10     5     6 1   
    11     5    40 1   
    12     6     7 1   
    13     7     8 1   
    14     7    41 1   
    15     8     9 2   
    16     8    10 1   
    17    10    11 2   
    18    10    12 1   
    19    11    26 1   
    20    11    42 1   
    21    12    13 ar  
    22    12    23 ar  
    23    13    14 ar  
    24    13    43 1   
    25    14    15 1   
    26    14    21 ar  
    27    15    16 1   
    28    15    20 1   
    29    15    44 1   
    30    16    17 1   
    31    16    45 1   
    32    16    46 1   
    33    17    18 1   
    34    17    47 1   
    35    17    48 1   
    36    18    19 1   
    37    18    49 1   
    38    19    20 1   
    39    19    50 1   
    40    19    51 1   
    41    20    52 1   
    42    20    53 1   
    43    21    22 ar  
    44    22    23 ar  
    45    22    54 1   
    46    23    24 1   
    47    24    25 2   
    48    24    26 1   
    49    26    27 1   
    50    27    28 1   
    51    27    55 1   
    52    27    56 1   
    53    28    29 ar  
    54    28    35 ar  
    55    29    30 ar  
    56    29    57 1   
    57    30    31 1   
    58    30    32 ar  
    59    32    33 1   
    60    32    34 ar  
    61    34    35 ar  
    62    34    58 1   
    63    35    59 1   
@<TRIPOS>SUBSTRUCTURE
     1 GZW         1 TEMP              0 ****  ****    0 ROOT
