@<TRIPOS>MOLECULE
GZX
   77    79     1     0     0
SMALL
abcg2


@<TRIPOS>ATOM
      1 C25         -0.7640    -7.0550   -40.1040 c          1 GZX       0.572100
      2 O26         -0.2920    -8.1240   -39.7860 o          1 GZX      -0.514100
      3 C27         -2.1210    -6.6100   -39.5310 c3         1 GZX      -0.167000
      4 C28         -2.7920    -7.7870   -38.8210 c3         1 GZX      -0.084100
      5 C29         -3.0550    -6.1410   -40.6580 c3         1 GZX      -0.084100
      6 C30         -1.9130    -5.4090   -38.5570 c3         1 GZX       0.193300
      7 C32         -1.0430    -5.7360   -37.3430 c3         1 GZX      -0.170400
      8 C33         -1.1490    -4.6520   -36.2860 c          1 GZX       0.613100
      9 C20          3.5490    -6.3240   -39.5800 c3         1 GZX      -0.094100
     10 C17          2.4480    -3.8600   -38.0840 c3         1 GZX      -0.082400
     11 C16          2.4120    -2.3400   -37.9320 c3         1 GZX      -0.059400
     12 C18          2.0120    -4.3160   -39.4720 c3         1 GZX      -0.068400
     13 C15          3.6060    -2.5220   -35.6840 c3         1 GZX      -0.081100
     14 C19          2.1030    -5.8300   -39.6770 c3         1 GZX      -0.093700
     15 C14          2.5010    -1.8870   -36.4930 cx         1 GZX       0.110000
     16 C12          1.3500    -1.3290   -35.7700 cx         1 GZX       0.099300
     17 C24         -0.4650    -6.6760   -42.5280 c3         1 GZX      -0.084100
     18 C01         -2.8220    -1.4240   -37.5460 c3         1 GZX      -0.050900
     19 C02         -2.4500    -1.8090   -36.1470 c2         1 GZX      -0.140400
     20 C03         -3.3000    -1.8200   -35.1130 ce         1 GZX      -0.220800
     21 C04         -4.7140    -1.4650   -35.1080 cc         1 GZX       0.343800
     22 C05         -5.3770    -0.6040   -35.9350 cd         1 GZX      -0.261000
     23 C07         -6.7420    -1.6600   -34.2290 cd         1 GZX       0.449700
     24 C08         -7.8430    -2.1310   -33.3450 c3         1 GZX      -0.130400
     25 C10         -1.0110    -2.2230   -35.9160 c3         1 GZX       0.156900
     26 C11         -0.0390    -1.1110   -36.3100 c3         1 GZX      -0.078400
     27 C21          1.4890    -6.2980   -41.0070 c3         1 GZX       0.184300
     28 C23         -0.0410    -6.1860   -41.1290 c3         1 GZX      -0.153700
     29 N09         -5.5110    -2.0410   -34.1430 nc         1 GZX      -0.633000
     30 N35         -0.7020    -3.4330   -36.6600 ns         1 GZX      -0.505900
     31 O13          2.3660    -0.4820   -36.2850 op         1 GZX      -0.443000
     32 O22          2.0340    -5.5780   -42.0960 oh         1 GZX      -0.666000
     33 O31         -3.1480    -4.9590   -38.0470 oh         1 GZX      -0.643000
     34 O34         -1.6000    -4.8740   -35.1740 o          1 GZX      -0.579100
     35 S06         -7.0330    -0.5300   -35.5090 ss         1 GZX      -0.059400
     36 H1          -2.1800    -8.2200   -38.0320 hc         1 GZX       0.045700
     37 H2          -3.7350    -7.4680   -38.3780 hc         1 GZX       0.045700
     38 H3          -3.0160    -8.5810   -39.5330 hc         1 GZX       0.045700
     39 H4          -4.0350    -5.8940   -40.2500 hc         1 GZX       0.045700
     40 H5          -2.6810    -5.2610   -41.1840 hc         1 GZX       0.045700
     41 H6          -3.2170    -6.9320   -41.3890 hc         1 GZX       0.045700
     42 H7          -1.4340    -4.6040   -39.1320 h1         1 GZX       0.019700
     43 H8          -1.3510    -6.6720   -36.8800 hc         1 GZX       0.081200
     44 H9          -0.0030    -5.8560   -37.6510 hc         1 GZX       0.081200
     45 H10          3.9630    -6.1670   -38.5850 hc         1 GZX       0.036700
     46 H11          3.6130    -7.3930   -39.7890 hc         1 GZX       0.036700
     47 H12          4.2050    -5.8050   -40.2840 hc         1 GZX       0.036700
     48 H13          1.8060    -4.3280   -37.3310 hc         1 GZX       0.045200
     49 H14          3.4590    -4.2140   -37.8750 hc         1 GZX       0.045200
     50 H15          3.2550    -1.9090   -38.4830 hc         1 GZX       0.049700
     51 H16          1.5120    -1.9410   -38.4060 hc         1 GZX       0.049700
     52 H17          2.6210    -3.8100   -40.2270 hc         1 GZX       0.041200
     53 H18          0.9830    -3.9740   -39.6380 hc         1 GZX       0.041200
     54 H19          3.6740    -2.0770   -34.6910 hc         1 GZX       0.047700
     55 H20          3.4360    -3.5910   -35.5570 hc         1 GZX       0.047700
     56 H21          4.5710    -2.3970   -36.1800 hc         1 GZX       0.047700
     57 H22          1.5510    -6.3240   -38.8700 hc         1 GZX       0.055700
     58 H23          1.3680    -1.4360   -34.6830 h1         1 GZX       0.083700
     59 H24         -1.5430    -6.7140   -42.6490 hc         1 GZX       0.046033
     60 H25         -0.0750    -6.0120   -43.2950 hc         1 GZX       0.046033
     61 H26         -0.0740    -7.6780   -42.7130 hc         1 GZX       0.046033
     62 H27         -3.8400    -1.7290   -37.7930 hc         1 GZX       0.036700
     63 H28         -2.7660    -0.3420   -37.6910 hc         1 GZX       0.036700
     64 H29         -2.1560    -1.8750   -38.2810 hc         1 GZX       0.036700
     65 H30         -2.9300    -2.1610   -34.1510 ha         1 GZX       0.202000
     66 H31         -4.9830     0.0050   -36.7320 h4         1 GZX       0.159000
     67 H32         -8.5790    -2.7080   -33.9070 hc         1 GZX       0.059367
     68 H33         -7.4370    -2.7650   -32.5610 hc         1 GZX       0.059367
     69 H34         -8.3670    -1.2950   -32.8820 hc         1 GZX       0.059367
     70 H35         -0.8780    -2.4420   -34.8540 h1         1 GZX       0.083700
     71 H36         -0.4140    -0.1730   -35.8910 hc         1 GZX       0.060700
     72 H37         -0.0300    -0.9770   -37.3950 hc         1 GZX       0.060700
     73 H38          1.7310    -7.3650   -41.1120 h1         1 GZX       0.048700
     74 H39         -0.3580    -5.1440   -41.0200 hc         1 GZX       0.067700
     75 H40         -0.3950    -3.3150   -37.6130 hn         1 GZX       0.301500
     76 H41          2.9610    -5.8160   -42.1870 ho         1 GZX       0.448000
     77 H42         -3.5620    -4.3710   -38.6850 ho         1 GZX       0.443000
@<TRIPOS>BOND
     1     1     2 2   
     2     1     3 1   
     3     1    28 1   
     4     3     4 1   
     5     3     5 1   
     6     3     6 1   
     7     4    36 1   
     8     4    37 1   
     9     4    38 1   
    10     5    39 1   
    11     5    40 1   
    12     5    41 1   
    13     6     7 1   
    14     6    33 1   
    15     6    42 1   
    16     7     8 1   
    17     7    43 1   
    18     7    44 1   
    19     8    30 1   
    20     8    34 2   
    21     9    14 1   
    22     9    45 1   
    23     9    46 1   
    24     9    47 1   
    25    10    11 1   
    26    10    12 1   
    27    10    48 1   
    28    10    49 1   
    29    11    15 1   
    30    11    50 1   
    31    11    51 1   
    32    12    14 1   
    33    12    52 1   
    34    12    53 1   
    35    13    15 1   
    36    13    54 1   
    37    13    55 1   
    38    13    56 1   
    39    14    27 1   
    40    14    57 1   
    41    15    16 1   
    42    15    31 1   
    43    16    26 1   
    44    16    31 1   
    45    16    58 1   
    46    17    28 1   
    47    17    59 1   
    48    17    60 1   
    49    17    61 1   
    50    18    19 1   
    51    18    62 1   
    52    18    63 1   
    53    18    64 1   
    54    19    20 2   
    55    19    25 1   
    56    20    21 1   
    57    20    65 1   
    58    21    22 2   
    59    21    29 1   
    60    22    35 1   
    61    22    66 1   
    62    23    24 1   
    63    23    29 2   
    64    23    35 1   
    65    24    67 1   
    66    24    68 1   
    67    24    69 1   
    68    25    26 1   
    69    25    30 1   
    70    25    70 1   
    71    26    71 1   
    72    26    72 1   
    73    27    28 1   
    74    27    32 1   
    75    27    73 1   
    76    28    74 1   
    77    30    75 1   
    78    32    76 1   
    79    33    77 1   
@<TRIPOS>SUBSTRUCTURE
     1 GZX         1 TEMP              0 ****  ****    0 ROOT
