@<TRIPOS>MOLECULE
GZX
   77    79     1     0     0
SMALL
No Charge or Current Charge


@<TRIPOS>ATOM
      1 C25         -0.7570    -7.1880   -40.1360 c          1 GZX       0.572100
      2 O26         -0.1910    -8.2600   -39.9330 o          1 GZX      -0.514100
      3 C27         -2.1860    -6.8660   -39.4440 c3         1 GZX      -0.167000
      4 C28         -2.7090    -8.1110   -38.6100 c3         1 GZX      -0.084100
      5 C29         -3.3070    -6.5840   -40.5240 c3         1 GZX      -0.084100
      6 C30         -2.0730    -5.5940   -38.5160 c3         1 GZX       0.193300
      7 C32         -1.0090    -5.6740   -37.3910 c3         1 GZX      -0.170400
      8 C33         -1.2130    -4.6090   -36.3110 c          1 GZX       0.613100
      9 C20          3.6140    -6.2160   -39.8430 c3         1 GZX      -0.094100
     10 C17          2.4660    -3.8680   -38.0510 c3         1 GZX      -0.082400
     11 C16          2.4770    -2.3370   -37.8190 c3         1 GZX      -0.059400
     12 C18          1.9710    -4.2620   -39.4660 c3         1 GZX      -0.068400
     13 C15          3.7950    -2.5990   -35.6280 c3         1 GZX      -0.081100
     14 C19          2.1240    -5.7740   -39.8290 c3         1 GZX      -0.093700
     15 C14          2.6350    -1.9150   -36.3500 cx         1 GZX       0.110000
     16 C12          1.4990    -1.3440   -35.5280 cx         1 GZX       0.099300
     17 C24         -0.6460    -6.5780   -42.6100 c3         1 GZX      -0.084100
     18 C01         -2.6540    -1.2120   -37.4400 c3         1 GZX      -0.050900
     19 C02         -2.3760    -1.6990   -36.0200 c2         1 GZX      -0.140400
     20 C03         -3.3000    -1.7110   -35.0250 ce         1 GZX      -0.220800
     21 C04         -4.6930    -1.2940   -35.0950 cc         1 GZX       0.343800
     22 C05         -5.2090    -0.2140   -35.7700 cd         1 GZX      -0.261000
     23 C07         -6.8120    -1.5360   -34.5440 cd         1 GZX       0.449700
     24 C08         -8.0060    -2.1590   -33.8800 c3         1 GZX      -0.130400
     25 C10         -0.9400    -2.1730   -35.7900 c3         1 GZX       0.156900
     26 C11          0.0880    -1.0450   -36.0360 c3         1 GZX      -0.078400
     27 C21          1.4280    -6.1620   -41.1750 c3         1 GZX       0.184300
     28 C23         -0.1480    -6.1880   -41.1840 c3         1 GZX      -0.153700
     29 N09         -5.5980    -2.0410   -34.3890 nc         1 GZX      -0.633000
     30 N35         -0.6840    -3.3670   -36.5960 ns         1 GZX      -0.505900
     31 O13          2.5250    -0.4970   -36.0920 op         1 GZX      -0.443000
     32 O22          1.9280    -5.2940   -42.2160 oh         1 GZX      -0.666000
     33 O31         -3.3480    -5.2870   -37.9340 oh         1 GZX      -0.643000
     34 O34         -1.7940    -4.8430   -35.2590 o          1 GZX      -0.579100
     35 S06         -6.9460    -0.1030   -35.5540 ss         1 GZX      -0.059400
     36 H1          -1.9870    -8.4260   -37.8500 hc         1 GZX       0.045700
     37 H2          -3.6600    -7.8980   -38.1060 hc         1 GZX       0.045700
     38 H3          -2.8750    -8.9710   -39.2710 hc         1 GZX       0.045700
     39 H4          -4.3030    -6.5030   -40.0710 hc         1 GZX       0.045700
     40 H5          -3.1120    -5.6520   -41.0690 hc         1 GZX       0.045700
     41 H6          -3.3570    -7.4060   -41.2490 hc         1 GZX       0.045700
     42 H7          -1.7860    -4.7450   -39.1510 h1         1 GZX       0.019700
     43 H8          -1.0310    -6.6550   -36.9080 hc         1 GZX       0.081200
     44 H9          -0.0470    -5.5070   -37.8730 hc         1 GZX       0.081200
     45 H10          4.0500    -6.1820   -38.8390 hc         1 GZX       0.036700
     46 H11          3.7100    -7.2510   -40.1950 hc         1 GZX       0.036700
     47 H12          4.2150    -5.5750   -40.4990 hc         1 GZX       0.036700
     48 H13          1.8420    -4.3540   -37.2930 hc         1 GZX       0.045200
     49 H14          3.4850    -4.2380   -37.8980 hc         1 GZX       0.045200
     50 H15          3.3040    -1.9110   -38.4010 hc         1 GZX       0.049700
     51 H16          1.5680    -1.9060   -38.2510 hc         1 GZX       0.049700
     52 H17          2.5210    -3.6600   -40.2010 hc         1 GZX       0.041200
     53 H18          0.9180    -3.9690   -39.5590 hc         1 GZX       0.041200
     54 H19          4.0780    -2.0520   -34.7210 hc         1 GZX       0.047700
     55 H20          3.5230    -3.6180   -35.3290 hc         1 GZX       0.047700
     56 H21          4.6820    -2.6590   -36.2700 hc         1 GZX       0.047700
     57 H22          1.6510    -6.3650   -39.0370 hc         1 GZX       0.055700
     58 H23          1.5530    -1.4730   -34.4470 h1         1 GZX       0.083700
     59 H24         -1.7360    -6.6100   -42.6790 hc         1 GZX       0.046033
     60 H25         -0.3100    -5.8550   -43.3630 hc         1 GZX       0.046033
     61 H26         -0.2650    -7.5660   -42.8970 hc         1 GZX       0.046033
     62 H27         -3.6990    -1.3740   -37.7260 hc         1 GZX       0.036700
     63 H28         -2.4410    -0.1410   -37.5370 hc         1 GZX       0.036700
     64 H29         -2.0470    -1.7370   -38.1880 hc         1 GZX       0.036700
     65 H30         -3.0340    -2.1280   -34.0540 ha         1 GZX       0.202000
     66 H31         -4.6760     0.5150   -36.3650 h4         1 GZX       0.159000
     67 H32         -8.1240    -3.2030   -34.1920 hc         1 GZX       0.059367
     68 H33         -7.8990    -2.1390   -32.7900 hc         1 GZX       0.059367
     69 H34         -8.9260    -1.6240   -34.1390 hc         1 GZX       0.059367
     70 H35         -0.8400    -2.4640   -34.7340 h1         1 GZX       0.083700
     71 H36         -0.2690    -0.1570   -35.5010 hc         1 GZX       0.060700
     72 H37          0.0960    -0.7620   -37.0930 hc         1 GZX       0.060700
     73 H38          1.7420    -7.1910   -41.4040 h1         1 GZX       0.048700
     74 H39         -0.5530    -5.1880   -40.9930 hc         1 GZX       0.067700
     75 H40         -0.2240    -3.2560   -37.4890 hn         1 GZX       0.301500
     76 H41          2.9060    -5.3110   -42.1520 ho         1 GZX       0.448000
     77 H42         -3.9830    -5.1820   -38.6730 ho         1 GZX       0.443000
@<TRIPOS>BOND
     1     1     2 2   
     2     1     3 1   
     3     1    28 1   
     4     3     4 1   
     5     3     5 1   
     6     3     6 1   
     7     4    36 1   
     8     4    37 1   
     9     4    38 1   
    10     5    39 1   
    11     5    40 1   
    12     5    41 1   
    13     6     7 1   
    14     6    33 1   
    15     6    42 1   
    16     7     8 1   
    17     7    43 1   
    18     7    44 1   
    19     8    30 1   
    20     8    34 2   
    21     9    14 1   
    22     9    45 1   
    23     9    46 1   
    24     9    47 1   
    25    10    11 1   
    26    10    12 1   
    27    10    48 1   
    28    10    49 1   
    29    11    15 1   
    30    11    50 1   
    31    11    51 1   
    32    12    14 1   
    33    12    52 1   
    34    12    53 1   
    35    13    15 1   
    36    13    54 1   
    37    13    55 1   
    38    13    56 1   
    39    14    27 1   
    40    14    57 1   
    41    15    16 1   
    42    15    31 1   
    43    16    26 1   
    44    16    31 1   
    45    16    58 1   
    46    17    28 1   
    47    17    59 1   
    48    17    60 1   
    49    17    61 1   
    50    18    19 1   
    51    18    62 1   
    52    18    63 1   
    53    18    64 1   
    54    19    20 2   
    55    19    25 1   
    56    20    21 1   
    57    20    65 1   
    58    21    22 2   
    59    21    29 1   
    60    22    35 1   
    61    22    66 1   
    62    23    24 1   
    63    23    29 2   
    64    23    35 1   
    65    24    67 1   
    66    24    68 1   
    67    24    69 1   
    68    25    26 1   
    69    25    30 1   
    70    25    70 1   
    71    26    71 1   
    72    26    72 1   
    73    27    28 1   
    74    27    32 1   
    75    27    73 1   
    76    28    74 1   
    77    30    75 1   
    78    32    76 1   
    79    33    77 1   
@<TRIPOS>SUBSTRUCTURE
     1 GZX         1 TEMP              0 ****  ****    0 ROOT
