@<TRIPOS>MOLECULE
GZY
   33    34     1     0     0
SMALL
No Charge or Current Charge


@<TRIPOS>ATOM
      1 C4           1.4850     2.2300    -0.0550 c5         1 GZY      -0.090400
      2 C5           1.0550     0.8770     0.5840 c5         1 GZY       0.159000
      3 C6          -0.2640     0.4530    -0.0790 ca         1 GZY      -0.044300
      4 C7          -0.3320     0.0780    -1.4390 ca         1 GZY      -0.132000
      5 C8          -1.5520    -0.3060    -2.0180 ca         1 GZY      -0.076000
      6 C10         -2.6740     0.0490     0.1150 ca         1 GZY       0.140100
      7 O            1.2600    -1.9350     1.0930 o          1 GZY      -0.593100
      8 C            3.2730    -2.2660    -0.1610 c3         1 GZY      -0.175100
      9 N            2.1480    -0.0300     0.1640 n          1 GZY      -0.422800
     10 C3           3.0250     2.1510     0.0680 c5         1 GZY      -0.096400
     11 C2           3.3100     0.6980    -0.3940 c5         1 GZY       0.106000
     12 C12         -1.4490     0.4320     0.6850 ca         1 GZY      -0.126000
     13 O1          -3.7920     0.0550     0.9250 os         1 GZY      -0.343100
     14 C11         -5.0930    -0.3200     0.4400 c3         1 GZY       0.149900
     15 C9          -2.7250    -0.3210    -1.2450 ca         1 GZY      -0.195000
     16 H1           1.1890     2.3140    -1.1070 hc         1 GZY       0.058200
     17 H2           1.0590     3.0920     0.4710 hc         1 GZY       0.058200
     18 H3           0.9830     0.9350     1.6790 h1         1 GZY       0.065700
     19 H4           0.5660     0.0830    -2.0530 ha         1 GZY       0.113000
     20 H5          -1.5890    -0.5920    -3.0670 ha         1 GZY       0.108000
     21 H6           3.1070    -3.3390    -0.0140 hc         1 GZY       0.058367
     22 H7           3.4070    -2.0150    -1.2190 hc         1 GZY       0.058367
     23 H8           4.2240    -1.9570     0.2850 hc         1 GZY       0.058367
     24 H9           3.5410     2.8950    -0.5490 hc         1 GZY       0.054700
     25 H10          3.3460     2.3040     1.1050 hc         1 GZY       0.054700
     26 H11          4.2690     0.3350    -0.0030 h1         1 GZY       0.044200
     27 H12          3.3230     0.6180    -1.4890 h1         1 GZY       0.044200
     28 H13         -1.4200     0.7150     1.7340 ha         1 GZY       0.126000
     29 H14         -5.4100     0.3410    -0.3770 h1         1 GZY       0.039367
     30 H15         -5.0900    -1.3550     0.0750 h1         1 GZY       0.039367
     31 H16         -5.8350    -0.2460     1.2450 h1         1 GZY       0.039367
     32 H17         -3.6560    -0.6220    -1.7170 ha         1 GZY       0.115000
     33 C1           2.1470    -1.4140     0.4300 c          1 GZY       0.604100
@<TRIPOS>BOND
     1     1     2 1   
     2     1    10 1   
     3     1    16 1   
     4     1    17 1   
     5     2     3 1   
     6     2     9 1   
     7     2    18 1   
     8     3     4 ar  
     9     3    12 ar  
    10     4     5 ar  
    11     4    19 1   
    12     5    15 ar  
    13     5    20 1   
    14     6    12 ar  
    15     6    13 1   
    16     6    15 ar  
    17     7    33 2   
    18     8    21 1   
    19     8    22 1   
    20     8    23 1   
    21     8    33 1   
    22     9    11 1   
    23     9    33 1   
    24    10    11 1   
    25    10    24 1   
    26    10    25 1   
    27    11    26 1   
    28    11    27 1   
    29    12    28 1   
    30    13    14 1   
    31    14    29 1   
    32    14    30 1   
    33    14    31 1   
    34    15    32 1   
@<TRIPOS>SUBSTRUCTURE
     1 GZY         1 TEMP              0 ****  ****    0 ROOT
