@<TRIPOS>MOLECULE
GZY
   33    34     1     0     0
SMALL
abcg2


@<TRIPOS>ATOM
      1 C4           1.4340     2.1590     0.0290 c5         1 GZY      -0.090400
      2 C5           1.0200     0.7530     0.4900 c5         1 GZY       0.159000
      3 C6          -0.2920     0.3230    -0.1180 ca         1 GZY      -0.044300
      4 C7          -0.3770    -0.0430    -1.4610 ca         1 GZY      -0.132000
      5 C8          -1.6070    -0.3610    -2.0060 ca         1 GZY      -0.076000
      6 C10         -2.6870     0.0530     0.0960 ca         1 GZY       0.140100
      7 O            1.2730    -1.9430     0.9570 o          1 GZY      -0.593100
      8 C            3.4210    -2.1380    -0.0850 c3         1 GZY      -0.175100
      9 N            2.1550    -0.0710     0.0870 n          1 GZY      -0.422800
     10 C3           2.9560     2.1180     0.0610 c5         1 GZY      -0.096400
     11 C2           3.2600     0.7170    -0.4500 c5         1 GZY       0.106000
     12 C12         -1.4420     0.3670     0.6490 ca         1 GZY      -0.126000
     13 O1          -3.7410     0.1340     0.9320 os         1 GZY      -0.343100
     14 C11         -5.0250    -0.1760     0.4300 c3         1 GZY       0.149900
     15 C9          -2.7700    -0.3170    -1.2420 ca         1 GZY      -0.195000
     16 H1           1.0890     2.3310    -0.9930 hc         1 GZY       0.058200
     17 H2           0.9990     2.9320     0.6600 hc         1 GZY       0.058200
     18 H3           0.9230     0.7340     1.5810 h1         1 GZY       0.065700
     19 H4           0.5140    -0.0810    -2.0760 ha         1 GZY       0.113000
     20 H5          -1.6760    -0.6480    -3.0480 ha         1 GZY       0.108000
     21 H6           3.2510    -3.2070     0.0100 hc         1 GZY       0.058367
     22 H7           3.6830    -1.9120    -1.1190 hc         1 GZY       0.058367
     23 H8           4.2810    -1.8730     0.5330 hc         1 GZY       0.058367
     24 H9           3.4200     2.8920    -0.5480 hc         1 GZY       0.054700
     25 H10          3.3210     2.2310     1.0850 hc         1 GZY       0.054700
     26 H11          4.2230     0.3480    -0.1020 h1         1 GZY       0.044200
     27 H12          3.2650     0.6900    -1.5440 h1         1 GZY       0.044200
     28 H13         -1.3830     0.6450     1.6960 ha         1 GZY       0.126000
     29 H14         -5.3170     0.4890    -0.3870 h1         1 GZY       0.039367
     30 H15         -5.0900    -1.2100     0.0810 h1         1 GZY       0.039367
     31 H16         -5.7200    -0.0410     1.2550 h1         1 GZY       0.039367
     32 H17         -3.7150    -0.5710    -1.7040 ha         1 GZY       0.115000
     33 C1           2.1910    -1.3880     0.3660 c          1 GZY       0.604100
@<TRIPOS>BOND
     1     1     2 1   
     2     1    10 1   
     3     1    16 1   
     4     1    17 1   
     5     2     3 1   
     6     2     9 1   
     7     2    18 1   
     8     3     4 ar  
     9     3    12 ar  
    10     4     5 ar  
    11     4    19 1   
    12     5    15 ar  
    13     5    20 1   
    14     6    12 ar  
    15     6    13 1   
    16     6    15 ar  
    17     7    33 2   
    18     8    21 1   
    19     8    22 1   
    20     8    23 1   
    21     8    33 1   
    22     9    11 1   
    23     9    33 1   
    24    10    11 1   
    25    10    24 1   
    26    10    25 1   
    27    11    26 1   
    28    11    27 1   
    29    12    28 1   
    30    13    14 1   
    31    14    29 1   
    32    14    30 1   
    33    14    31 1   
    34    15    32 1   
@<TRIPOS>SUBSTRUCTURE
     1 GZY         1 TEMP              0 ****  ****    0 ROOT
