@<TRIPOS>MOLECULE
Z00
   51    53     1     0     0
SMALL
No Charge or Current Charge


@<TRIPOS>ATOM
      1 C1          -3.2960    -2.1690     0.0140 ca         1 Z00      -0.302500
      2 S2          -4.6760    -3.3240    -0.0140 sy         1 Z00       1.185600
      3 O3          -4.7970    -3.9550    -1.3300 o          1 Z00      -0.516000
      4 O4          -4.7170    -4.0850     1.2340 o          1 Z00      -0.516000
      5 N5          -6.0320    -2.3780     0.1110 nu         1 Z00      -0.859000
      6 C6           1.2580     0.1930     0.0890 c3         1 Z00       0.233800
      7 C7          -0.1460     0.8250     0.0850 c3         1 Z00      -0.062100
      8 C8          -1.2430    -0.2310     0.0610 ca         1 Z00      -0.023300
      9 C9          -1.7810    -0.7240     1.2640 ca         1 Z00      -0.128000
     10 C10         -2.8030    -1.6880     1.2450 ca         1 Z00       0.002000
     11 C11         -2.7470    -1.6880    -1.1930 ca         1 Z00       0.002000
     12 C12         -1.7260    -0.7230    -1.1650 ca         1 Z00      -0.128000
     13 C13         -5.9540    -1.0730    -0.2070 cc         1 Z00       0.671300
     14 S14         -5.8910     0.1620     0.9980 ss         1 Z00      -0.310800
     15 C15         -5.6070     1.2500    -0.3280 cc         1 Z00       0.424700
     16 N16         -5.6530     0.6970    -1.5340 nd         1 Z00      -0.294000
     17 N17         -5.8680    -0.6680    -1.4600 nd         1 Z00      -0.387000
     18 C18         -5.2640     2.7000    -0.0720 c3         1 Z00      -0.094000
     19 C19         -3.7360     2.9350    -0.1480 c3         1 Z00      -0.086100
     20 C20         -6.0370     3.6720    -0.9950 c3         1 Z00      -0.086100
     21 C21          5.3940    -0.4630     0.1210 ca         1 Z00       0.457900
     22 C22          6.3640     0.5550     0.1380 ca         1 Z00      -0.328300
     23 C23          3.6730     1.0600     0.1230 ca         1 Z00       0.663900
     24 N24          4.0660    -0.2190     0.1120 nb         1 Z00      -0.759000
     25 C25          4.5600     2.1580     0.1480 ca         1 Z00      -0.029000
     26 C26          5.9370     1.8990     0.1570 ca         1 Z00       0.029000
     27 N27          2.3000     1.2340     0.1130 nu         1 Z00      -0.921100
     28 F29          8.1140    -0.8010    -0.7370 f          1 Z00      -0.114333
     29 F30          8.6490     1.2150    -0.1420 f          1 Z00      -0.114333
     30 F31          8.2120    -0.2810     1.3720 f          1 Z00      -0.114333
     31 Cl           3.9800     3.8300     0.1690 cl         1 Z00      -0.189000
     32 H10         -3.2180    -2.0430     2.1880 ha         1 Z00       0.143000
     33 H11         -3.1230    -2.0390    -2.1540 ha         1 Z00       0.143000
     34 H5          -6.2770    -2.5080     1.0790 hn         1 Z00       0.524000
     35 H61C         1.3540    -0.4590     0.9690 h1         1 Z00       0.063700
     36 H62C         1.3710    -0.4350    -0.8060 h1         1 Z00       0.063700
     37 H71C        -0.2590     1.4610     0.9710 hc         1 Z00       0.058700
     38 H72C        -0.2430     1.4850    -0.7850 hc         1 Z00       0.058700
     39 H27          2.0070     2.2090     0.1240 hn         1 Z00       0.507000
     40 H9          -1.4140    -0.3540     2.2180 ha         1 Z00       0.121500
     41 H12         -1.3180    -0.3510    -2.1020 ha         1 Z00       0.121500
     42 H18         -5.5700     2.9330     0.9550 hc         1 Z00       0.066700
     43 H191        -3.2090     2.2800     0.5570 hc         1 Z00       0.044367
     44 H192        -3.3570     2.7270    -1.1560 hc         1 Z00       0.044367
     45 H193        -3.4890     3.9740     0.1050 hc         1 Z00       0.044367
     46 H201        -7.1190     3.5110    -0.9070 hc         1 Z00       0.044367
     47 H202        -5.8270     4.7140    -0.7230 hc         1 Z00       0.044367
     48 H203        -5.7530     3.5300    -2.0450 hc         1 Z00       0.044367
     49 H21          5.6870    -1.5130     0.1150 h4         1 Z00       0.038100
     50 H26          6.6450     2.7260     0.1810 ha         1 Z00       0.144000
     51 C28          7.8380     0.1750     0.1560 c3         1 Z00       0.374300
@<TRIPOS>BOND
     1     1     2 1   
     2     1    10 ar  
     3     1    11 ar  
     4     2     3 2   
     5     2     4 2   
     6     2     5 1   
     7     5    13 1   
     8     5    34 1   
     9     6     7 1   
    10     6    27 1   
    11     6    35 1   
    12     6    36 1   
    13     7     8 1   
    14     7    37 1   
    15     7    38 1   
    16     8     9 ar  
    17     8    12 ar  
    18     9    10 ar  
    19     9    40 1   
    20    10    32 1   
    21    11    12 ar  
    22    11    33 1   
    23    12    41 1   
    24    13    14 1   
    25    13    17 2   
    26    14    15 1   
    27    15    16 2   
    28    15    18 1   
    29    16    17 1   
    30    18    19 1   
    31    18    20 1   
    32    18    42 1   
    33    19    43 1   
    34    19    44 1   
    35    19    45 1   
    36    20    46 1   
    37    20    47 1   
    38    20    48 1   
    39    21    22 ar  
    40    21    24 ar  
    41    21    49 1   
    42    22    26 ar  
    43    22    51 1   
    44    23    24 ar  
    45    23    25 ar  
    46    23    27 1   
    47    25    26 ar  
    48    25    31 1   
    49    26    50 1   
    50    27    39 1   
    51    28    51 1   
    52    29    51 1   
    53    30    51 1   
@<TRIPOS>SUBSTRUCTURE
     1 Z00         1 TEMP              0 ****  ****    0 ROOT
