@<TRIPOS>MOLECULE
Z00
   51    53     1     0     0
SMALL
abcg2


@<TRIPOS>ATOM
      1 C1          -2.6550    -1.6810     0.1380 ca         1 Z00      -0.302500
      2 S2          -4.0580    -2.7450     0.0950 sy         1 Z00       1.185600
      3 O3          -4.3610    -3.0870    -1.2770 o          1 Z00      -0.516000
      4 O4          -3.9090    -3.7840     1.0940 o          1 Z00      -0.516000
      5 N5          -5.3150    -1.8120     0.7020 nu         1 Z00      -0.859000
      6 C6           2.0050     0.1580     0.0610 c3         1 Z00       0.233800
      7 C7           0.7150     0.9380     0.3030 c3         1 Z00      -0.062100
      8 C8          -0.4770     0.0290     0.2490 ca         1 Z00      -0.023300
      9 C9          -0.9380    -0.6060     1.4020 ca         1 Z00      -0.128000
     10 C10         -2.0240    -1.4620     1.3560 ca         1 Z00       0.002000
     11 C11         -2.2150    -1.0670    -1.0260 ca         1 Z00       0.002000
     12 C12         -1.1230    -0.2180    -0.9600 ca         1 Z00      -0.128000
     13 C13         -5.7350    -0.6400     0.1320 cc         1 Z00       0.671300
     14 S14         -6.8760     0.3900     0.9210 ss         1 Z00      -0.310800
     15 C15         -6.7210     1.4370    -0.4670 cc         1 Z00       0.424700
     16 N16         -5.8960     0.9810    -1.3400 nd         1 Z00      -0.294000
     17 N17         -5.3290    -0.2020    -1.0110 nd         1 Z00      -0.387000
     18 C18         -7.5010     2.7090    -0.5780 c3         1 Z00      -0.094000
     19 C19         -7.2870     3.5900     0.6550 c3         1 Z00      -0.086100
     20 C20         -7.1580     3.4570    -1.8610 c3         1 Z00      -0.086100
     21 C21          5.8980    -1.0910    -0.0080 ca         1 Z00       0.457900
     22 C22          6.9990    -0.2560    -0.0480 ca         1 Z00      -0.328300
     23 C23          4.4040     0.6560     0.0410 ca         1 Z00       0.663900
     24 N24          4.6490    -0.6520     0.0310 nb         1 Z00      -0.759000
     25 C25          5.4810     1.5800     0.0050 ca         1 Z00      -0.029000
     26 C26          6.7680     1.1240    -0.0400 ca         1 Z00       0.029000
     27 N27          3.1290     1.0660     0.0980 nu         1 Z00      -0.921100
     28 F29          8.4490    -2.0950    -0.2240 f          1 Z00      -0.114333
     29 F30          9.0990    -0.2320    -1.0900 f          1 Z00      -0.114333
     30 F31          9.0680    -0.4680     1.0420 f          1 Z00      -0.114333
     31 CL           5.1550     3.2770     0.0190 cl         1 Z00      -0.189000
     32 H10         -2.3670    -1.9430     2.2620 ha         1 Z00       0.143000
     33 H11         -2.7130    -1.2380    -1.9690 ha         1 Z00       0.143000
     34 H5          -5.5700    -2.0140     1.6600 hn         1 Z00       0.524000
     35 H61C         2.1250    -0.6070     0.8300 h1         1 Z00       0.063700
     36 H62C         1.9530    -0.3610    -0.9010 h1         1 Z00       0.063700
     37 H71C         0.7660     1.4300     1.2770 hc         1 Z00       0.058700
     38 H72C         0.6140     1.7210    -0.4520 hc         1 Z00       0.058700
     39 H27          2.9410     2.0490    -0.0150 hn         1 Z00       0.507000
     40 H9          -0.4470    -0.4250     2.3500 ha         1 Z00       0.121500
     41 H12         -0.7760     0.2670    -1.8630 ha         1 Z00       0.121500
     42 H18         -8.5600     2.4320    -0.6130 hc         1 Z00       0.066700
     43 H191        -7.6050     3.0960     1.5740 hc         1 Z00       0.044367
     44 H192        -6.2360     3.8620     0.7630 hc         1 Z00       0.044367
     45 H193        -7.8680     4.5070     0.5620 hc         1 Z00       0.044367
     46 H201        -7.3160     2.8430    -2.7460 hc         1 Z00       0.044367
     47 H202        -7.7930     4.3380    -1.9450 hc         1 Z00       0.044367
     48 H203        -6.1190     3.7890    -1.8590 hc         1 Z00       0.044367
     49 H21          6.0120    -2.1680    -0.0110 h4         1 Z00       0.038100
     50 H26          7.5840     1.8340    -0.0690 ha         1 Z00       0.144000
     51 C28          8.3940    -0.7680    -0.0810 c3         1 Z00       0.374300
@<TRIPOS>BOND
     1     1     2 1   
     2     1    10 ar  
     3     1    11 ar  
     4     2     3 2   
     5     2     4 2   
     6     2     5 1   
     7     5    13 1   
     8     5    34 1   
     9     6     7 1   
    10     6    27 1   
    11     6    35 1   
    12     6    36 1   
    13     7     8 1   
    14     7    37 1   
    15     7    38 1   
    16     8     9 ar  
    17     8    12 ar  
    18     9    10 ar  
    19     9    40 1   
    20    10    32 1   
    21    11    12 ar  
    22    11    33 1   
    23    12    41 1   
    24    13    14 1   
    25    13    17 2   
    26    14    15 1   
    27    15    16 2   
    28    15    18 1   
    29    16    17 1   
    30    18    19 1   
    31    18    20 1   
    32    18    42 1   
    33    19    43 1   
    34    19    44 1   
    35    19    45 1   
    36    20    46 1   
    37    20    47 1   
    38    20    48 1   
    39    21    22 ar  
    40    21    24 ar  
    41    21    49 1   
    42    22    26 ar  
    43    22    51 1   
    44    23    24 ar  
    45    23    25 ar  
    46    23    27 1   
    47    25    26 ar  
    48    25    31 1   
    49    26    50 1   
    50    27    39 1   
    51    28    51 1   
    52    29    51 1   
    53    30    51 1   
@<TRIPOS>SUBSTRUCTURE
     1 Z00         1 TEMP              0 ****  ****    0 ROOT
