@<TRIPOS>MOLECULE
Z01
   28    27     1     0     0
SMALL
bcc


@<TRIPOS>ATOM
      1 N           15.2020    11.5820    29.6390 n8         1 Z01      -0.910800
      2 CA          16.0090    10.4740    29.1500 c3         1 Z01      -0.010500
      3 CB          15.5220     9.1760    29.7970 c3         1 Z01       0.116000
      4 N1          15.4530     9.3530    31.2290 ns         1 Z01      -0.554900
      5 C1          15.5030     8.3590    32.1270 c          1 Z01       0.662100
      6 C           16.0530    10.2900    27.6100 c          1 Z01       0.910600
      7 O           16.8470     9.4210    27.1970 o          1 Z01      -0.830800
      8 O1          15.6150     7.1840    31.7960 o          1 Z01      -0.637100
      9 C2          15.4390     8.7960    33.5990 c3         1 Z01      -0.130000
     10 C23         14.1660     9.6130    33.8540 c3         1 Z01      -0.076100
     11 C21         16.6710     9.6510    33.9220 c3         1 Z01      -0.076100
     12 C22         15.4300     7.5660    34.5010 c3         1 Z01      -0.076100
     13 H           15.6720    12.4540    29.4330 hn         1 Z01       0.334300
     14 HA          17.0350    10.6390    29.4960 h1         1 Z01       0.040700
     15 H25         14.5380     8.9070    29.3930 h1         1 Z01       0.054700
     16 H25A        16.2050     8.3640    29.5530 h1         1 Z01       0.054700
     17 HN27        15.2850    10.3060    31.5170 hn         1 Z01       0.326500
     18 H76         14.0960     9.8630    34.9140 hc         1 Z01       0.033144
     19 H76A        14.1520    10.5540    33.3030 hc         1 Z01       0.033144
     20 H76B        13.2690     9.0520    33.5850 hc         1 Z01       0.033144
     21 H78         16.6660     9.9240    34.9790 hc         1 Z01       0.033144
     22 H78A        17.5970     9.1070    33.7240 hc         1 Z01       0.033144
     23 H78B        16.6940    10.5760    33.3450 hc         1 Z01       0.033144
     24 H80         15.3950     7.8820    35.5450 hc         1 Z01       0.033144
     25 H80A        14.5620     6.9320    34.3190 hc         1 Z01       0.033144
     26 H80B        16.3240     6.9560    34.3710 hc         1 Z01       0.033144
     27 H2          14.3460    11.6130    29.0970 hn         1 Z01       0.334300
     28 OXT         15.2940    11.0020    26.9260 o          1 Z01      -0.830800
@<TRIPOS>BOND
     1     1     2 1   
     2     1    13 1   
     3     1    27 1   
     4     2     3 1   
     5     2     6 1   
     6     2    14 1   
     7     3     4 1   
     8     3    15 1   
     9     3    16 1   
    10     4     5 1   
    11     4    17 1   
    12     5     8 2   
    13     5     9 1   
    14     6     7 1   
    15     6    28 1   
    16     9    10 1   
    17     9    11 1   
    18     9    12 1   
    19    10    18 1   
    20    10    19 1   
    21    10    20 1   
    22    11    21 1   
    23    11    22 1   
    24    11    23 1   
    25    12    24 1   
    26    12    25 1   
    27    12    26 1   
@<TRIPOS>SUBSTRUCTURE
     1 Z01         1 TEMP              0 ****  ****    0 ROOT
