@<TRIPOS>MOLECULE
Z01
   28    27     1     0     0
SMALL
No Charge or Current Charge


@<TRIPOS>ATOM
      1 N           15.4510    11.7000    29.5820 n8         1 Z01      -0.910800
      2 CA          15.9220    10.3080    29.1860 c3         1 Z01      -0.010500
      3 CB          14.9790     9.2110    29.7450 c3         1 Z01       0.116000
      4 N1          14.8850     9.2380    31.2110 ns         1 Z01      -0.554900
      5 C1          15.7980     8.6680    32.0710 c          1 Z01       0.662100
      6 C           16.1700    10.0400    27.6440 c          1 Z01       0.910600
      7 O           17.3190     9.8570    27.2560 o          1 Z01      -0.830800
      8 O1          16.7360     8.0080    31.6410 o          1 Z01      -0.637100
      9 C2          15.5680     8.8940    33.6020 c3         1 Z01      -0.130000
     10 C23         14.2970     9.7460    33.9030 c3         1 Z01      -0.076100
     11 C21         16.8050     9.6290    34.1860 c3         1 Z01      -0.076100
     12 C22         15.4090     7.5120    34.2920 c3         1 Z01      -0.076100
     13 H           16.1290    12.3950    29.2500 hn         1 Z01       0.334300
     14 HA          16.8970    10.1650    29.6730 h1         1 Z01       0.040700
     15 H25         13.9730     9.3420    29.3260 h1         1 Z01       0.054700
     16 H25A        15.3420     8.2240    29.4300 h1         1 Z01       0.054700
     17 HN27        14.1580     9.8010    31.6320 hn         1 Z01       0.326500
     18 H76         14.1670     9.8820    34.9840 hc         1 Z01       0.033144
     19 H76A        14.3720    10.7450    33.4530 hc         1 Z01       0.033144
     20 H76B        13.3920     9.2590    33.5210 hc         1 Z01       0.033144
     21 H78         16.6860     9.8050    35.2630 hc         1 Z01       0.033144
     22 H78A        17.7190     9.0410    34.0410 hc         1 Z01       0.033144
     23 H78B        16.9470    10.6010    33.6970 hc         1 Z01       0.033144
     24 H80         15.2480     7.6260    35.3710 hc         1 Z01       0.033144
     25 H80A        14.5530     6.9660    33.8770 hc         1 Z01       0.033144
     26 H80B        16.3040     6.8940    34.1500 hc         1 Z01       0.033144
     27 H2          14.5940    11.9210    29.0620 hn         1 Z01       0.334300
     28 OXT         15.2190    10.1170    26.8720 o          1 Z01      -0.830800
@<TRIPOS>BOND
     1     1     2 1   
     2     1    13 1   
     3     1    27 1   
     4     2     3 1   
     5     2     6 1   
     6     2    14 1   
     7     3     4 1   
     8     3    15 1   
     9     3    16 1   
    10     4     5 1   
    11     4    17 1   
    12     5     8 2   
    13     5     9 1   
    14     6     7 1   
    15     6    28 1   
    16     9    10 1   
    17     9    11 1   
    18     9    12 1   
    19    10    18 1   
    20    10    19 1   
    21    10    20 1   
    22    11    21 1   
    23    11    22 1   
    24    11    23 1   
    25    12    24 1   
    26    12    25 1   
    27    12    26 1   
@<TRIPOS>SUBSTRUCTURE
     1 Z01         1 TEMP              0 ****  ****    0 ROOT
