@<TRIPOS>MOLECULE
Z02
   32    33     1     0     0
SMALL
abcg2


@<TRIPOS>ATOM
      1 N01          4.6400    -0.7340    -0.0080 no         1 Z02       0.710200
      2 N02          1.5140     3.2440     0.4670 nt         1 Z02      -0.596000
      3 N03         -0.8970    -0.1060    -0.0820 nu         1 Z02      -0.928200
      4 N04         -3.4440     0.5170     0.1810 nb         1 Z02      -0.674000
      5 C05          2.6600     0.6560     0.3090 ca         1 Z02       0.040000
      6 C06          1.2930     0.8530     0.2830 ca         1 Z02      -0.271600
      7 C07          0.4330    -0.2290    -0.0840 ca         1 Z02       0.442000
      8 C08          1.0400    -1.4450    -0.4810 ca         1 Z02      -0.248000
      9 C09          2.3990    -1.6110    -0.4650 ca         1 Z02       0.035000
     10 C10          3.2210    -0.5610    -0.0550 ca         1 Z02      -0.281200
     11 C11          0.7280     2.1770     0.6700 c          1 Z02       0.629700
     12 C12         -1.8060    -1.1500    -0.4650 c3         1 Z02       0.170500
     13 C13         -3.2330    -0.6790    -0.3450 ca         1 Z02       0.328300
     14 C14         -4.6960     0.9480     0.3100 ca         1 Z02       0.354900
     15 C15         -5.7950     0.2030    -0.0800 ca         1 Z02      -0.160000
     16 C16         -5.5720    -1.0530    -0.6320 ca         1 Z02      -0.065000
     17 C17         -4.2720    -1.5030    -0.7690 ca         1 Z02      -0.157000
     18 O18         -0.3960     2.2800     1.1550 o          1 Z02      -0.624100
     19 O19          5.3280     0.1940     0.3670 o          1 Z02      -0.419000
     20 O20          5.1010    -1.8050    -0.3480 o          1 Z02      -0.419000
     21 HN02         2.3590     3.2040    -0.0760 hn         1 Z02       0.319000
     22 HN0A         1.1720     4.1600     0.7100 hn         1 Z02       0.319000
     23 HN03        -1.3110     0.7310     0.3120 hn         1 Z02       0.564000
     24 H05          3.3070     1.4580     0.6360 ha         1 Z02       0.143000
     25 H08          0.4270    -2.2780    -0.7930 ha         1 Z02       0.123000
     26 H09          2.8170    -2.5610    -0.7650 ha         1 Z02       0.146000
     27 H12         -1.6210    -1.4720    -1.4950 h1         1 Z02       0.057200
     28 H12A        -1.6770    -2.0400     0.1640 h1         1 Z02       0.057200
     29 H14         -4.8240     1.9330     0.7450 h4         1 Z02       0.028100
     30 H15         -6.7940     0.5950     0.0460 ha         1 Z02       0.129000
     31 H16         -6.4020    -1.6700    -0.9490 ha         1 Z02       0.123000
     32 H17         -4.0590    -2.4740    -1.1960 ha         1 Z02       0.125000
@<TRIPOS>BOND
     1     1    10 1   
     2     1    19 1   
     3     1    20 1   
     4     2    11 1   
     5     2    21 1   
     6     2    22 1   
     7     3     7 1   
     8     3    12 1   
     9     3    23 1   
    10     4    13 ar  
    11     4    14 ar  
    12     5     6 ar  
    13     5    10 ar  
    14     5    24 1   
    15     6     7 ar  
    16     6    11 1   
    17     7     8 ar  
    18     8     9 ar  
    19     8    25 1   
    20     9    10 ar  
    21     9    26 1   
    22    11    18 2   
    23    12    13 1   
    24    12    27 1   
    25    12    28 1   
    26    13    17 ar  
    27    14    15 ar  
    28    14    29 1   
    29    15    16 ar  
    30    15    30 1   
    31    16    17 ar  
    32    16    31 1   
    33    17    32 1   
@<TRIPOS>SUBSTRUCTURE
     1 Z02         1 TEMP              0 ****  ****    0 ROOT
