@<TRIPOS>MOLECULE
Z02
   32    33     1     0     0
SMALL
No Charge or Current Charge


@<TRIPOS>ATOM
      1 N01          4.8030    -0.7190    -0.0610 no         1 Z02       0.710200
      2 N02          1.4820     3.1720     0.9060 nt         1 Z02      -0.596000
      3 N03         -0.8600    -0.1320    -0.4450 nu         1 Z02      -0.928200
      4 N04         -3.5470     0.5460     0.3100 nb         1 Z02      -0.674000
      5 C05          2.7160     0.6870     0.1580 ca         1 Z02       0.040000
      6 C06          1.3120     0.8630     0.0700 ca         1 Z02      -0.271600
      7 C07          0.5210    -0.2340    -0.3410 ca         1 Z02       0.442000
      8 C08          1.1260    -1.4590    -0.6600 ca         1 Z02      -0.248000
      9 C09          2.5120    -1.6260    -0.5710 ca         1 Z02       0.035000
     10 C10          3.3190    -0.5500    -0.1580 ca         1 Z02      -0.281200
     11 C11          0.6900     2.1990     0.4100 c          1 Z02       0.629700
     12 C12         -1.8570    -1.2020    -0.1910 c3         1 Z02       0.170500
     13 C13         -3.3160    -0.7000    -0.1850 ca         1 Z02       0.328300
     14 C14         -4.8220     1.0030     0.3230 ca         1 Z02       0.354900
     15 C15         -5.9080     0.2470    -0.1490 ca         1 Z02      -0.160000
     16 C16         -5.6760    -1.0400    -0.6600 ca         1 Z02      -0.065000
     17 C17         -4.3550    -1.5170    -0.6750 ca         1 Z02      -0.157000
     18 O18         -0.4920     2.4540     0.2500 o          1 Z02      -0.624100
     19 O19          5.4800     0.2490     0.3100 o          1 Z02      -0.419000
     20 O20          5.2870    -1.8190    -0.3550 o          1 Z02      -0.419000
     21 HN02         2.4620     3.0070     1.0690 hn         1 Z02       0.319000
     22 HN0A         1.0710     4.0650     1.1300 hn         1 Z02       0.319000
     23 HN03        -1.1920     0.8190    -0.2170 hn         1 Z02       0.564000
     24 H05          3.3530     1.5140     0.4650 ha         1 Z02       0.143000
     25 H08          0.5210    -2.2980    -0.9880 ha         1 Z02       0.123000
     26 H09          2.9460    -2.5930    -0.8260 ha         1 Z02       0.146000
     27 H12         -1.7620    -1.9890    -0.9510 h1         1 Z02       0.057200
     28 H12A        -1.6590    -1.6660     0.7850 h1         1 Z02       0.057200
     29 H14         -4.9760     2.0040     0.7240 h4         1 Z02       0.028100
     30 H15         -6.9120     0.6590    -0.1160 ha         1 Z02       0.129000
     31 H16         -6.4960    -1.6510    -1.0320 ha         1 Z02       0.123000
     32 H17         -4.1350    -2.5090    -1.0620 ha         1 Z02       0.125000
@<TRIPOS>BOND
     1     1    10 1   
     2     1    19 1   
     3     1    20 1   
     4     2    11 1   
     5     2    21 1   
     6     2    22 1   
     7     3     7 1   
     8     3    12 1   
     9     3    23 1   
    10     4    13 ar  
    11     4    14 ar  
    12     5     6 ar  
    13     5    10 ar  
    14     5    24 1   
    15     6     7 ar  
    16     6    11 1   
    17     7     8 ar  
    18     8     9 ar  
    19     8    25 1   
    20     9    10 ar  
    21     9    26 1   
    22    11    18 2   
    23    12    13 1   
    24    12    27 1   
    25    12    28 1   
    26    13    17 ar  
    27    14    15 ar  
    28    14    29 1   
    29    15    16 ar  
    30    15    30 1   
    31    16    17 ar  
    32    16    31 1   
    33    17    32 1   
@<TRIPOS>SUBSTRUCTURE
     1 Z02         1 TEMP              0 ****  ****    0 ROOT
