@<TRIPOS>MOLECULE
Z04
   46    48     1     0     0
SMALL
bcc


@<TRIPOS>ATOM
      1 N01          1.5550    -0.3790     0.1590 nu         1 Z04      -0.753600
      2 N02          0.2070    -4.2290    -0.8300 nt         1 Z04      -0.660000
      3 N03          5.6650     0.7140    -0.9040 nb         1 Z04      -0.770500
      4 N04          5.7020     0.7330     1.4730 nb         1 Z04      -0.770500
      5 N05         -2.9210     1.2980     0.0130 nh         1 Z04      -0.643000
      6 N06          7.6370     0.5560     0.2540 nv         1 Z04      -0.940500
      7 N07         -3.8890    -1.5080     0.1490 no         1 Z04       0.329200
      8 C08         -1.6030    -2.1600    -0.1550 ca         1 Z04       0.036000
      9 C09         -0.2380    -1.9660    -0.1310 ca         1 Z04      -0.296600
     10 C11          0.2450    -0.6360     0.0690 ca         1 Z04       0.323600
     11 C12         -0.6900     0.4140     0.1030 ca         1 Z04      -0.340000
     12 C13         -2.0630     0.2230     0.0330 ca         1 Z04       0.309600
     13 C14         -2.5210    -1.1230    -0.0410 ca         1 Z04      -0.311200
     14 C16          2.1270     0.9390     0.3330 c3         1 Z04       0.299100
     15 C17          3.6200     0.8590     0.3170 ca         1 Z04      -0.434900
     16 C18          4.3490     0.8020    -0.8650 ca         1 Z04       0.506200
     17 C19          6.2980     0.6790     0.2760 ca         1 Z04       0.911900
     18 C20          4.3850     0.8190     1.4740 ca         1 Z04       0.506200
     19 C21         -3.8320     1.4330    -1.1200 c6         1 Z04       0.168300
     20 C22         -4.9740     2.3590    -0.7580 c6         1 Z04       0.124900
     21 C23         -2.4370     2.5970     0.4460 c6         1 Z04       0.168300
     22 C24         -3.6270     3.4900     0.7570 c6         1 Z04       0.124900
     23 O25          1.8550    -3.0590     0.1460 o          1 Z04      -0.643100
     24 O26         -4.4960     3.6190    -0.3430 os         1 Z04      -0.400600
     25 O27         -4.2330    -2.6140    -0.2260 o          1 Z04      -0.228000
     26 O28         -4.6480    -0.7450     0.7080 o          1 Z04      -0.228000
     27 HN01         2.1650    -1.1850     0.2060 hn         1 Z04       0.487800
     28 HN02        -0.6520    -4.2450    -1.3490 hn         1 Z04       0.318000
     29 HN0A         0.8200    -5.0200    -0.9490 hn         1 Z04       0.318000
     30 HN06         8.1230     0.7030    -0.6130 hn         1 Z04       0.443800
     31 HN0B         8.1530     0.7210     1.1010 hn         1 Z04       0.443800
     32 H08         -1.9900    -3.1670    -0.2070 ha         1 Z04       0.160000
     33 H12         -0.3180     1.4270     0.1410 ha         1 Z04       0.142000
     34 H16          1.7870     1.6010    -0.4690 h1         1 Z04       0.049200
     35 H16A         1.7890     1.3870     1.2750 h1         1 Z04       0.049200
     36 H18          3.8390     0.8380    -1.8240 h4         1 Z04       0.024600
     37 H20          3.9050     0.8670     2.4480 h4         1 Z04       0.024600
     38 H21         -3.2840     1.8430    -1.9800 h1         1 Z04       0.049700
     39 H21A        -4.2330     0.4740    -1.4370 h1         1 Z04       0.049700
     40 H22         -5.6070     2.5200    -1.6320 h1         1 Z04       0.061700
     41 H22A        -5.5850     1.8960     0.0280 h1         1 Z04       0.061700
     42 H23         -1.8510     2.4880     1.3600 h1         1 Z04       0.049700
     43 H23A        -1.7960     3.0740    -0.3100 h1         1 Z04       0.049700
     44 H24         -4.1600     3.0830     1.6270 h1         1 Z04       0.061700
     45 H24A        -3.2720     4.4890     1.0160 h1         1 Z04       0.061700
     46 C15          0.6930    -3.1150    -0.2580 c          1 Z04       0.704700
@<TRIPOS>BOND
     1     1    10 1   
     2     1    14 1   
     3     1    27 1   
     4     2    28 1   
     5     2    29 1   
     6     2    46 1   
     7     3    16 ar  
     8     3    17 ar  
     9     4    17 ar  
    10     4    18 ar  
    11     5    12 1   
    12     5    19 1   
    13     5    21 1   
    14     6    17 1   
    15     6    30 1   
    16     6    31 1   
    17     7    13 1   
    18     7    25 1   
    19     7    26 1   
    20     8     9 ar  
    21     8    13 ar  
    22     8    32 1   
    23     9    10 ar  
    24     9    46 1   
    25    10    11 ar  
    26    11    12 ar  
    27    11    33 1   
    28    12    13 ar  
    29    14    15 1   
    30    14    34 1   
    31    14    35 1   
    32    15    16 ar  
    33    15    18 ar  
    34    16    36 1   
    35    18    37 1   
    36    19    20 1   
    37    19    38 1   
    38    19    39 1   
    39    20    24 1   
    40    20    40 1   
    41    20    41 1   
    42    21    22 1   
    43    21    42 1   
    44    21    43 1   
    45    22    24 1   
    46    22    44 1   
    47    22    45 1   
    48    23    46 2   
@<TRIPOS>SUBSTRUCTURE
     1 Z04         1 TEMP              0 ****  ****    0 ROOT
