@<TRIPOS>MOLECULE
Z04
   46    48     1     0     0
SMALL
No Charge or Current Charge


@<TRIPOS>ATOM
      1 N01          1.5920    -0.1730    -0.2020 nu         1 Z04      -0.947200
      2 N02          0.3730    -4.2490     0.0530 nt         1 Z04      -0.593000
      3 N03          5.7360     1.1290    -0.9810 nb         1 Z04      -0.244500
      4 N04          5.8270     0.0030     1.1450 nb         1 Z04      -0.244500
      5 N05         -2.9700     1.3210    -0.1260 nh         1 Z04      -0.781400
      6 N06          7.7090     0.3540    -0.1120 nv         1 Z04      -1.050900
      7 N07         -3.9140    -1.3650     0.1160 no         1 Z04       0.709200
      8 C08         -1.5500    -2.1180     0.0140 ca         1 Z04       0.054000
      9 C09         -0.1630    -1.8510    -0.0580 ca         1 Z04      -0.296600
     10 C11          0.2510    -0.5040    -0.1280 ca         1 Z04       0.462000
     11 C12         -0.6870     0.5310    -0.1420 ca         1 Z04      -0.322000
     12 C13         -2.0510     0.2600    -0.0690 ca         1 Z04       0.448000
     13 C14         -2.4790    -1.0640     0.0170 ca         1 Z04      -0.311200
     14 C16          2.2340     0.9630     0.4420 c3         1 Z04       0.299100
     15 C17          3.7240     0.7920     0.2900 ca         1 Z04      -0.304300
     16 C18          4.4030     1.2750    -0.8440 ca         1 Z04       0.177900
     17 C19          6.3670     0.5000     0.0220 ca         1 Z04       0.385900
     18 C20          4.4940     0.1520     1.2780 ca         1 Z04       0.177900
     19 C21         -3.6530     1.6350    -1.4190 c6         1 Z04       0.168300
     20 C22         -4.9430     2.4800    -1.2010 c6         1 Z04       0.148100
     21 C23         -2.8050     2.5070     0.7710 c6         1 Z04       0.168300
     22 C24         -4.1290     3.3150     0.9070 c6         1 Z04       0.148100
     23 O25          2.0400    -2.8300    -0.1600 o          1 Z04      -0.643100
     24 O26         -4.6610     3.6510    -0.3970 os         1 Z04      -0.447000
     25 O27         -4.3670    -2.1910    -0.6850 o          1 Z04      -0.418000
     26 O28         -4.4980    -1.0240     1.1510 o          1 Z04      -0.418000
     27 HN01         2.1720    -1.0190    -0.2450 hn         1 Z04       0.543000
     28 HN02        -0.6130    -4.4320     0.1430 hn         1 Z04       0.318000
     29 HN0A         1.0350    -5.0090     0.0510 hn         1 Z04       0.318000
     30 HN06         8.1870     0.9010    -0.8250 hn         1 Z04       0.499000
     31 HN0B         8.2570     0.0900     0.7040 hn         1 Z04       0.499000
     32 H08         -1.9270    -3.1370     0.0760 ha         1 Z04       0.142000
     33 H12         -0.3570     1.5590    -0.2330 ha         1 Z04       0.124000
     34 H16          1.9140     1.9080    -0.0190 h1         1 Z04       0.049200
     35 H16A         1.9710     0.9970     1.5090 h1         1 Z04       0.049200
     36 H18          3.8780     1.7840    -1.6510 h4         1 Z04       0.024600
     37 H20          4.0420    -0.2470     2.1850 h4         1 Z04       0.024600
     38 H21         -2.9690     2.1930    -2.0760 h1         1 Z04       0.049700
     39 H21A        -3.9250     0.7080    -1.9450 h1         1 Z04       0.049700
     40 H22         -5.3500     2.7960    -2.1720 h1         1 Z04       0.061700
     41 H22A        -5.7050     1.8690    -0.6950 h1         1 Z04       0.061700
     42 H23         -2.4860     2.1830     1.7730 h1         1 Z04       0.049700
     43 H23A        -2.0240     3.1740     0.3770 h1         1 Z04       0.049700
     44 H24         -4.8720     2.7210     1.4590 h1         1 Z04       0.061700
     45 H24A        -3.9450     4.2400     1.4730 h1         1 Z04       0.061700
     46 C15          0.8350    -2.9880    -0.0590 c          1 Z04       0.637700
@<TRIPOS>BOND
     1     1    10 1   
     2     1    14 1   
     3     1    27 1   
     4     2    28 1   
     5     2    29 1   
     6     2    46 1   
     7     3    16 ar  
     8     3    17 ar  
     9     4    17 ar  
    10     4    18 ar  
    11     5    12 1   
    12     5    19 1   
    13     5    21 1   
    14     6    17 1   
    15     6    30 1   
    16     6    31 1   
    17     7    13 1   
    18     7    25 1   
    19     7    26 1   
    20     8     9 ar  
    21     8    13 ar  
    22     8    32 1   
    23     9    10 ar  
    24     9    46 1   
    25    10    11 ar  
    26    11    12 ar  
    27    11    33 1   
    28    12    13 ar  
    29    14    15 1   
    30    14    34 1   
    31    14    35 1   
    32    15    16 ar  
    33    15    18 ar  
    34    16    36 1   
    35    18    37 1   
    36    19    20 1   
    37    19    38 1   
    38    19    39 1   
    39    20    24 1   
    40    20    40 1   
    41    20    41 1   
    42    21    22 1   
    43    21    42 1   
    44    21    43 1   
    45    22    24 1   
    46    22    44 1   
    47    22    45 1   
    48    23    46 2   
@<TRIPOS>SUBSTRUCTURE
     1 Z04         1 TEMP              0 ****  ****    0 ROOT
