@<TRIPOS>MOLECULE
Z07
   19    20     1     0     0
SMALL
bcc


@<TRIPOS>ATOM
      1 C4          -7.6700    27.5990    43.0460 ca         1 Z07       0.197400
      2 C5          -6.4030    27.2050    43.5110 ca         1 Z07      -0.081100
      3 C6          -5.6730    27.9620    44.4090 ca         1 Z07      -0.044000
      4 C8          -7.5200    25.7180    41.9270 cc         1 Z07       0.676100
      5 C1          -6.2270    29.1490    44.8640 ca         1 Z07      -0.156000
      6 C2          -7.4790    29.5640    44.4210 ca         1 Z07      -0.058000
      7 C3          -8.2070    28.8030    43.5160 ca         1 Z07      -0.181300
      8 F12         -9.9400    30.3950    43.5860 f          1 Z07      -0.233300
      9 F13         -9.5590    29.4440    41.6990 f          1 Z07      -0.233300
     10 F14        -10.5030    28.3430    43.2860 f          1 Z07      -0.233300
     11 N10         -7.8500    24.7130    41.1180 nv         1 Z07      -0.924800
     12 N9          -8.2710    26.7500    42.1610 nd         1 Z07      -0.643100
     13 S7          -5.9770    25.6880    42.7770 ss         1 Z07      -0.160100
     14 H1          -4.6980    27.6400    44.7510 ha         1 Z07       0.144000
     15 H2          -5.6800    29.7600    45.5690 ha         1 Z07       0.141000
     16 H3          -7.8790    30.4950    44.7970 ha         1 Z07       0.150000
     17 H4          -8.7130    24.7600    40.6020 hn         1 Z07       0.452800
     18 H5          -7.2200    23.9580    40.9100 hn         1 Z07       0.452800
     19 C11         -9.5470    29.2450    43.0260 c3         1 Z07       0.734200
@<TRIPOS>BOND
     1     1     2 ar  
     2     1     7 ar  
     3     1    12 1   
     4     2     3 ar  
     5     2    13 1   
     6     3     5 ar  
     7     3    14 1   
     8     4    11 1   
     9     4    12 2   
    10     4    13 1   
    11     5     6 ar  
    12     5    15 1   
    13     6     7 ar  
    14     6    16 1   
    15     7    19 1   
    16     8    19 1   
    17     9    19 1   
    18    10    19 1   
    19    11    17 1   
    20    11    18 1   
@<TRIPOS>SUBSTRUCTURE
     1 Z07         1 TEMP              0 ****  ****    0 ROOT
