@<TRIPOS>MOLECULE
Z07
   19    20     1     0     0
SMALL
No Charge or Current Charge


@<TRIPOS>ATOM
      1 C4          -7.6660    27.5580    43.0670 ca         1 Z07       0.197400
      2 C5          -6.4180    27.1610    43.5220 ca         1 Z07      -0.208000
      3 C6          -5.6640    27.9350    44.4120 ca         1 Z07      -0.026000
      4 C8          -7.4820    25.6540    42.0200 cc         1 Z07       0.676100
      5 C1          -6.1990    29.1560    44.8520 ca         1 Z07      -0.138000
      6 C2          -7.4660    29.5790    44.4020 ca         1 Z07      -0.040000
      7 C3          -8.2200    28.7840    43.5010 ca         1 Z07      -0.181300
      8 F12         -9.9710    30.4390    43.5250 f          1 Z07      -0.112000
      9 F13         -9.6350    29.3840    41.6640 f          1 Z07      -0.112000
     10 F14        -10.5730    28.3660    43.3460 f          1 Z07      -0.112000
     11 N10         -7.8940    24.6840    41.1910 nv         1 Z07      -1.035200
     12 N9          -8.2950    26.6810    42.1850 nd         1 Z07      -0.643100
     13 S7          -5.9210    25.6120    42.8600 ss         1 Z07      -0.033200
     14 H1          -4.6860    27.6010    44.7550 ha         1 Z07       0.126000
     15 H2          -5.6340    29.7770    45.5440 ha         1 Z07       0.123000
     16 H3          -7.8520    30.5300    44.7630 ha         1 Z07       0.132000
     17 H4          -8.6600    24.9490    40.5830 hn         1 Z07       0.508000
     18 H5          -7.1790    24.0980    40.7740 hn         1 Z07       0.508000
     19 C11         -9.6000    29.2440    43.0090 c3         1 Z07       0.370300
@<TRIPOS>BOND
     1     1     2 ar  
     2     1     7 ar  
     3     1    12 1   
     4     2     3 ar  
     5     2    13 1   
     6     3     5 ar  
     7     3    14 1   
     8     4    11 1   
     9     4    12 2   
    10     4    13 1   
    11     5     6 ar  
    12     5    15 1   
    13     6     7 ar  
    14     6    16 1   
    15     7    19 1   
    16     8    19 1   
    17     9    19 1   
    18    10    19 1   
    19    11    17 1   
    20    11    18 1   
@<TRIPOS>SUBSTRUCTURE
     1 Z07         1 TEMP              0 ****  ****    0 ROOT
