@<TRIPOS>MOLECULE
Z0A
   32    32     1     0     0
SMALL
No Charge or Current Charge


@<TRIPOS>ATOM
      1 N1          -0.0070     1.3640    -1.0010 n8         1 Z0A      -0.995200
      2 C1           0.3310     0.3950     0.0570 c3         1 Z0A       0.159500
      3 C2          -0.7750    -0.6880     0.1910 c3         1 Z0A      -0.050400
      4 C3          -2.1080    -0.2530     0.8790 c5         1 Z0A      -0.148700
      5 C4           1.7200    -0.2270    -0.2390 c3         1 Z0A      -0.105400
      6 C5          -2.8750     0.8270     0.1020 c          1 Z0A       0.587000
      7 O1          -2.8870     2.0390     0.2540 o          1 Z0A      -0.555000
      8 N2          -3.8400     0.1630    -0.6110 ns         1 Z0A      -0.517900
      9 C6          -3.8540    -1.2860    -0.4190 c5         1 Z0A       0.104000
     10 C7          -3.1510    -1.4020     0.9620 c5         1 Z0A      -0.094400
     11 C8           2.8920     0.7930    -0.2820 c3         1 Z0A      -0.186400
     12 C9           4.2470     0.0850    -0.4280 c          1 Z0A       0.571100
     13 C10          5.0330    -0.1650     0.8590 c3         1 Z0A      -0.202100
     14 O2           4.6760    -0.2670    -1.5190 o          1 Z0A      -0.519100
     15 H1           0.7380     2.0670    -1.0520 hn         1 Z0A       0.393000
     16 H2           0.3970     0.9330     1.0150 h1         1 Z0A       0.072700
     17 H3          -0.9800    -1.1060    -0.8030 hc         1 Z0A       0.042700
     18 H4          -0.3600    -1.5190     0.7750 hc         1 Z0A       0.042700
     19 H5          -1.8380     0.1460     1.8630 hc         1 Z0A       0.076700
     20 H6           1.9380    -0.9690     0.5400 hc         1 Z0A       0.055700
     21 H7           1.6820    -0.7780    -1.1880 hc         1 Z0A       0.055700
     22 H8          -4.5320     0.7030    -1.1150 hn         1 Z0A       0.326500
     23 H9          -4.8700    -1.7030    -0.3990 h1         1 Z0A       0.041200
     24 H10         -3.2860    -1.7980    -1.2070 h1         1 Z0A       0.041200
     25 H11         -2.7070    -2.3900     1.1340 hc         1 Z0A       0.054700
     26 H12         -3.8650    -1.2200     1.7740 hc         1 Z0A       0.054700
     27 H13          2.7570     1.4730    -1.1310 hc         1 Z0A       0.059200
     28 H14          2.8790     1.3500     0.6630 hc         1 Z0A       0.059200
     29 H15          4.3860    -0.6790     1.5790 hc         1 Z0A       0.061033
     30 H16          5.9670    -0.7110     0.6850 hc         1 Z0A       0.061033
     31 H17          5.2150     0.7950     1.3540 hc         1 Z0A       0.061033
     32 H18          0.0450     0.8940    -1.9100 hn         1 Z0A       0.393000
@<TRIPOS>BOND
     1     1     2 1   
     2     1    15 1   
     3     1    32 1   
     4     2     3 1   
     5     2     5 1   
     6     2    16 1   
     7     3     4 1   
     8     3    17 1   
     9     3    18 1   
    10     4     6 1   
    11     4    10 1   
    12     4    19 1   
    13     5    11 1   
    14     5    20 1   
    15     5    21 1   
    16     6     7 2   
    17     6     8 1   
    18     8     9 1   
    19     8    22 1   
    20     9    10 1   
    21     9    23 1   
    22     9    24 1   
    23    10    25 1   
    24    10    26 1   
    25    11    12 1   
    26    11    27 1   
    27    11    28 1   
    28    12    13 1   
    29    12    14 2   
    30    13    29 1   
    31    13    30 1   
    32    13    31 1   
@<TRIPOS>SUBSTRUCTURE
     1 Z0A         1 TEMP              0 ****  ****    0 ROOT
