@<TRIPOS>MOLECULE
Z0A
   32    32     1     0     0
SMALL
abcg2


@<TRIPOS>ATOM
      1 N1          -0.0270     1.0100    -0.8090 n8         1 Z0A      -0.995200
      2 C1           0.2440     0.0480     0.2510 c3         1 Z0A       0.159500
      3 C2          -0.8570    -1.0110     0.2330 c3         1 Z0A      -0.050400
      4 C3          -2.1840    -0.6250     0.9040 c5         1 Z0A      -0.148700
      5 C4           1.6210    -0.6220     0.1570 c3         1 Z0A      -0.105400
      6 C5          -2.6590     0.7840     0.5700 c          1 Z0A       0.587000
      7 O1          -2.3280     1.8190     1.1240 o          1 Z0A      -0.555000
      8 N2          -3.5650     0.6730    -0.4190 ns         1 Z0A      -0.517900
      9 C6          -3.8600    -0.6860    -0.8170 c5         1 Z0A       0.104000
     10 C7          -3.3340    -1.4890     0.3770 c5         1 Z0A      -0.094400
     11 C8           2.7610     0.3820     0.1570 c3         1 Z0A      -0.186400
     12 C9           4.1450    -0.2130     0.1170 c          1 Z0A       0.571100
     13 C10          5.2770     0.7790     0.1320 c3         1 Z0A      -0.202100
     14 O2           4.3380    -1.4080     0.0710 o          1 Z0A      -0.519100
     15 H1           0.5550     1.8310    -0.7040 hn         1 Z0A       0.393000
     16 H2           0.2010     0.5940     1.2000 h1         1 Z0A       0.072700
     17 H3          -1.0390    -1.2910    -0.8110 hc         1 Z0A       0.042700
     18 H4          -0.5100    -1.9210     0.7290 hc         1 Z0A       0.042700
     19 H5          -2.0650    -0.7060     1.9870 hc         1 Z0A       0.076700
     20 H6           1.7380    -1.3100     0.9980 hc         1 Z0A       0.055700
     21 H7           1.6600    -1.2340    -0.7510 hc         1 Z0A       0.055700
     22 H8          -3.9850     1.4760    -0.8580 hn         1 Z0A       0.326500
     23 H9          -4.9300    -0.8250    -0.9730 h1         1 Z0A       0.041200
     24 H10         -3.3530    -0.9530    -1.7490 h1         1 Z0A       0.041200
     25 H11         -3.0180    -2.4930     0.0960 hc         1 Z0A       0.054700
     26 H12         -4.1190    -1.5820     1.1300 hc         1 Z0A       0.054700
     27 H13          2.6820     1.0650    -0.6960 hc         1 Z0A       0.059200
     28 H14          2.7030     1.0310     1.0390 hc         1 Z0A       0.059200
     29 H15          5.2120     1.4100     1.0200 hc         1 Z0A       0.061033
     30 H16          6.2450     0.2840     0.1140 hc         1 Z0A       0.061033
     31 H17          5.1990     1.4450    -0.7300 hc         1 Z0A       0.061033
     32 H18          0.2190     0.6020    -1.7050 hn         1 Z0A       0.393000
@<TRIPOS>BOND
     1     1     2 1   
     2     1    15 1   
     3     1    32 1   
     4     2     3 1   
     5     2     5 1   
     6     2    16 1   
     7     3     4 1   
     8     3    17 1   
     9     3    18 1   
    10     4     6 1   
    11     4    10 1   
    12     4    19 1   
    13     5    11 1   
    14     5    20 1   
    15     5    21 1   
    16     6     7 2   
    17     6     8 1   
    18     8     9 1   
    19     8    22 1   
    20     9    10 1   
    21     9    23 1   
    22     9    24 1   
    23    10    25 1   
    24    10    26 1   
    25    11    12 1   
    26    11    27 1   
    27    11    28 1   
    28    12    13 1   
    29    12    14 2   
    30    13    29 1   
    31    13    30 1   
    32    13    31 1   
@<TRIPOS>SUBSTRUCTURE
     1 Z0A         1 TEMP              0 ****  ****    0 ROOT
