@<TRIPOS>MOLECULE
Z0B
   19    21     1     0     0
SMALL
No Charge or Current Charge


@<TRIPOS>ATOM
      1 CAO          0.8750     0.4130     0.0290 ca         1 Z0B      -0.036000
      2 CAN          1.4320    -0.8810     0.0120 ca         1 Z0B      -0.073000
      3 CAH          2.8340    -1.0010     0.0130 ca         1 Z0B      -0.130000
      4 CAD          3.6180     0.1670     0.0310 ca         1 Z0B       0.322900
      5 CAL          1.7370     1.5300     0.0460 ca         1 Z0B       0.358900
      6 CAC         -2.7240     1.4290     0.0350 cc         1 Z0B      -0.179400
      7 CAG         -1.3660     1.6820     0.0420 cd         1 Z0B      -0.167200
      8 CAM         -0.5280     0.5010     0.0270 ca         1 Z0B      -0.088800
      9 CAJ         -1.2940    -0.6540     0.0090 ca         1 Z0B       0.343300
     10 NAC         -0.7810    -1.9040    -0.0070 nb         1 Z0B      -0.617000
     11 SAK         -3.0520    -0.3290     0.0100 ss         1 Z0B      -0.070900
     12 CAK          0.5730    -2.0060    -0.0060 ca         1 Z0B       0.362900
     13 N            3.0890     1.4150     0.0470 nb         1 Z0B      -0.655000
     14 HAL          1.3440     2.5450     0.0590 h4         1 Z0B       0.024100
     15 HAH          3.3150    -1.9760     0.0010 ha         1 Z0B       0.127000
     16 HAK          0.9800    -3.0170    -0.0190 h4         1 Z0B       0.027100
     17 HAD          4.7050     0.1020     0.0320 h4         1 Z0B       0.023100
     18 HAC         -3.5510     2.1320     0.0430 h4         1 Z0B       0.221000
     19 HAG         -0.9730     2.6970     0.0570 ha         1 Z0B       0.207000
@<TRIPOS>BOND
     1     1     2 ar  
     2     1     5 ar  
     3     1     8 ar  
     4     2     3 ar  
     5     2    12 ar  
     6     3     4 ar  
     7     3    15 1   
     8     4    13 ar  
     9     4    17 1   
    10     5    13 ar  
    11     5    14 1   
    12     6     7 2   
    13     6    11 1   
    14     6    18 1   
    15     7     8 1   
    16     7    19 1   
    17     8     9 ar  
    18     9    10 ar  
    19     9    11 1   
    20    10    12 ar  
    21    12    16 1   
@<TRIPOS>SUBSTRUCTURE
     1 Z0B         1 TEMP              0 ****  ****    0 ROOT
