@<TRIPOS>MOLECULE
Z0B
   19    21     1     0     0
SMALL
bcc


@<TRIPOS>ATOM
      1 CAO          0.8770     0.4380     0.0300 ca         1 Z0B      -0.101300
      2 CAN          1.4240    -0.8610     0.0130 ca         1 Z0B      -0.138300
      3 CAH          2.8230    -0.9950     0.0130 ca         1 Z0B      -0.213300
      4 CAD          3.5930     0.1370     0.0290 ca         1 Z0B       0.388200
      5 CAL          1.7770     1.5250     0.0480 ca         1 Z0B       0.424200
      6 CAC         -2.6990     1.3660     0.0330 cc         1 Z0B      -0.129400
      7 CAG         -1.3850     1.7010     0.0420 cd         1 Z0B      -0.117200
      8 CAM         -0.5380     0.5550     0.0290 ca         1 Z0B      -0.154100
      9 CAJ         -1.2640    -0.6330     0.0110 ca         1 Z0B       0.408600
     10 NAC         -0.7550    -1.8740    -0.0060 nb         1 Z0B      -0.617000
     11 SAK         -2.9690    -0.3340     0.0100 ss         1 Z0B      -0.070900
     12 CAK          0.5420    -1.9800    -0.0050 ca         1 Z0B       0.428200
     13 N            3.0770     1.3830     0.0470 nb         1 Z0B      -0.655000
     14 HAL          1.3970     2.5420     0.0630 h4         1 Z0B       0.024100
     15 HAH          3.2830    -1.9750    -0.0010 ha         1 Z0B       0.145000
     16 HAK          0.9590    -2.9820    -0.0180 h4         1 Z0B       0.027100
     17 HAD          4.6740     0.0680     0.0290 h4         1 Z0B       0.023100
     18 HAC         -3.5420     2.0400     0.0390 h4         1 Z0B       0.171000
     19 HAG         -1.0400     2.7250     0.0560 ha         1 Z0B       0.157000
@<TRIPOS>BOND
     1     1     2 ar  
     2     1     5 ar  
     3     1     8 ar  
     4     2     3 ar  
     5     2    12 ar  
     6     3     4 ar  
     7     3    15 1   
     8     4    13 ar  
     9     4    17 1   
    10     5    13 ar  
    11     5    14 1   
    12     6     7 2   
    13     6    11 1   
    14     6    18 1   
    15     7     8 1   
    16     7    19 1   
    17     8     9 ar  
    18     9    10 ar  
    19     9    11 1   
    20    10    12 ar  
    21    12    16 1   
@<TRIPOS>SUBSTRUCTURE
     1 Z0B         1 TEMP              0 ****  ****    0 ROOT
