@<TRIPOS>MOLECULE
Z0F
   24    24     1     0     0
SMALL
No Charge or Current Charge


@<TRIPOS>ATOM
      1 C1          43.7150    20.3500    65.2620 c6         1 Z0F       0.398300
      2 C2          44.6480    20.4610    66.5280 c6         1 Z0F       0.104300
      3 C3          45.8870    21.3170    66.1740 c6         1 Z0F       0.139300
      4 C4          46.7260    20.5960    65.0600 c6         1 Z0F       0.109300
      5 C5          45.7740    19.8190    64.0640 c6         1 Z0F       0.140300
      6 C6          46.3270    19.6920    62.6040 c3         1 Z0F       0.171600
      7 O1          43.0170    19.1040    65.2600 oh         1 Z0F      -0.734000
      8 O2          43.9620    20.9670    67.6910 oh         1 Z0F      -0.719000
      9 O3          46.6900    21.5770    67.3430 oh         1 Z0F      -0.728000
     10 O4          47.5730    21.5780    64.4210 oh         1 Z0F      -0.716000
     11 O5          44.4690    20.4500    64.0290 os         1 Z0F      -0.414000
     12 O6          45.4700    18.9250    61.7370 oh         1 Z0F      -0.702000
     13 H1          42.9890    21.1800    65.2840 h2         1 Z0F       0.076700
     14 HO1         42.5360    19.0870    66.1190 ho         1 Z0F       0.525000
     15 H2          45.0180    19.4500    66.7580 h1         1 Z0F       0.051700
     16 HO2         44.6860    21.3580    68.2420 ho         1 Z0F       0.527000
     17 H3          45.5200    22.2690    65.7570 h1         1 Z0F       0.071700
     18 HO3         47.5020    22.0330    67.0130 ho         1 Z0F       0.521000
     19 H4          47.3570    19.8370    65.5490 h1         1 Z0F       0.046700
     20 HO4         48.3900    21.1160    64.1170 ho         1 Z0F       0.506000
     21 H5          45.6460    18.7940    64.4420 h1         1 Z0F       0.065700
     22 H61         46.4600    20.7020    62.1930 h1         1 Z0F       0.026200
     23 H62         47.3200    19.2230    62.6540 h1         1 Z0F       0.026200
     24 HO6         45.8610    18.9700    60.8330 ho         1 Z0F       0.504000
@<TRIPOS>BOND
     1     1     2 1   
     2     1     7 1   
     3     1    11 1   
     4     1    13 1   
     5     2     3 1   
     6     2     8 1   
     7     2    15 1   
     8     3     4 1   
     9     3     9 1   
    10     3    17 1   
    11     4     5 1   
    12     4    10 1   
    13     4    19 1   
    14     5     6 1   
    15     5    11 1   
    16     5    21 1   
    17     6    12 1   
    18     6    22 1   
    19     6    23 1   
    20     7    14 1   
    21     8    16 1   
    22     9    18 1   
    23    10    20 1   
    24    12    24 1   
@<TRIPOS>SUBSTRUCTURE
     1 Z0F         1 TEMP              0 ****  ****    0 ROOT
