@<TRIPOS>MOLECULE
Z0F
   24    24     1     0     0
SMALL
abcg2


@<TRIPOS>ATOM
      1 C1          43.8090    20.4180    65.2360 c6         1 Z0F       0.398300
      2 C2          44.7390    20.4280    66.4590 c6         1 Z0F       0.104300
      3 C3          45.9510    21.2880    66.1310 c6         1 Z0F       0.139300
      4 C4          46.7460    20.6230    65.0050 c6         1 Z0F       0.109300
      5 C5          45.7870    19.8410    64.0910 c6         1 Z0F       0.140300
      6 C6          46.3010    19.6970    62.6780 c3         1 Z0F       0.171600
      7 O1          42.9970    19.2770    65.1930 oh         1 Z0F      -0.734000
      8 O2          43.9830    20.9270    67.5330 oh         1 Z0F      -0.719000
      9 O3          46.7070    21.4530    67.3060 oh         1 Z0F      -0.728000
     10 O4          47.4760    21.6410    64.3530 oh         1 Z0F      -0.716000
     11 O5          44.5190    20.4810    64.0470 os         1 Z0F      -0.414000
     12 O6          45.4760    18.7900    61.9870 oh         1 Z0F      -0.702000
     13 H1          43.1950    21.3300    65.2750 h2         1 Z0F       0.076700
     14 HO1         42.4880    19.2280    66.0100 ho         1 Z0F       0.525000
     15 H2          45.0780    19.4010    66.6690 h1         1 Z0F       0.051700
     16 HO2         44.5250    20.8920    68.3280 ho         1 Z0F       0.527000
     17 H3          45.5910    22.2620    65.7650 h1         1 Z0F       0.071700
     18 HO3         47.3620    22.1420    67.1550 ho         1 Z0F       0.521000
     19 H4          47.4260    19.8900    65.4590 h1         1 Z0F       0.046700
     20 HO4         48.2610    21.2570    63.9510 ho         1 Z0F       0.506000
     21 H5          45.6800    18.8310    64.5090 h1         1 Z0F       0.065700
     22 H61         46.3250    20.6780    62.1890 h1         1 Z0F       0.026200
     23 H62         47.3380    19.3370    62.7280 h1         1 Z0F       0.026200
     24 HO6         45.7820    18.7430    61.0770 ho         1 Z0F       0.504000
@<TRIPOS>BOND
     1     1     2 1   
     2     1     7 1   
     3     1    11 1   
     4     1    13 1   
     5     2     3 1   
     6     2     8 1   
     7     2    15 1   
     8     3     4 1   
     9     3     9 1   
    10     3    17 1   
    11     4     5 1   
    12     4    10 1   
    13     4    19 1   
    14     5     6 1   
    15     5    11 1   
    16     5    21 1   
    17     6    12 1   
    18     6    22 1   
    19     6    23 1   
    20     7    14 1   
    21     8    16 1   
    22     9    18 1   
    23    10    20 1   
    24    12    24 1   
@<TRIPOS>SUBSTRUCTURE
     1 Z0F         1 TEMP              0 ****  ****    0 ROOT
