@<TRIPOS>MOLECULE
Z0I
   23    24     1     0     0
SMALL
No Charge or Current Charge


@<TRIPOS>ATOM
      1 C10          9.5690   -38.4280    -2.7210 cc         1 Z0I      -0.247200
      2 N12         11.3600   -37.1650    -2.1170 na         1 Z0I      -0.202700
      3 C13         11.5880   -38.4670    -1.6970 ca         1 Z0I      -0.041200
      4 C01         15.6630   -36.7230    -0.0580 c3         1 Z0I      -0.183100
      5 C02         14.2960   -36.9750    -0.6860 c          1 Z0I       0.598100
      6 O03         13.6680   -36.0660    -1.2160 o          1 Z0I      -0.589100
      7 C05         12.7040   -39.0070    -1.0090 ca         1 Z0I      -0.055000
      8 C06         12.6610   -40.3890    -0.7060 ca         1 Z0I      -0.129000
      9 C07         11.5560   -41.1900    -1.0740 ca         1 Z0I      -0.128000
     10 C08         10.4650   -40.6220    -1.7560 ca         1 Z0I      -0.067000
     11 C09         10.5220   -39.2550    -2.0480 ca         1 Z0I      -0.088800
     12 C11         10.0980   -37.1470    -2.7560 cd         1 Z0I      -0.158100
     13 H1           8.6080   -38.7310    -3.1330 ha         1 Z0I       0.205000
     14 H2          11.9970   -36.3810    -1.9810 hn         1 Z0I       0.360000
     15 H3          15.9810   -35.6770    -0.1440 hc         1 Z0I       0.063367
     16 H4          15.6430   -37.0550     0.9860 hc         1 Z0I       0.063367
     17 H5          16.3930   -37.4060    -0.5060 hc         1 Z0I       0.063367
     18 H6          14.5400   -38.8900    -0.1140 hn         1 Z0I       0.151000
     19 H7          13.4930   -40.8510    -0.1800 ha         1 Z0I       0.107000
     20 H8          11.5480   -42.2500    -0.8290 ha         1 Z0I       0.111000
     21 H9           9.6070   -41.2240    -2.0460 ha         1 Z0I       0.116000
     22 H10          9.6790   -36.2360    -3.1800 h4         1 Z0I       0.212000
     23 N04         13.8720   -38.2970    -0.5890 ns         1 Z0I      -0.159000
@<TRIPOS>BOND
     1     1    11 1   
     2     1    12 2   
     3     1    13 1   
     4     2     3 1   
     5     2    12 1   
     6     2    14 1   
     7     3     7 ar  
     8     3    11 ar  
     9     4     5 1   
    10     4    15 1   
    11     4    16 1   
    12     4    17 1   
    13     5     6 2   
    14     5    23 1   
    15     7     8 ar  
    16     7    23 1   
    17     8     9 ar  
    18     8    19 1   
    19     9    10 ar  
    20     9    20 1   
    21    10    11 ar  
    22    10    21 1   
    23    12    22 1   
    24    18    23 1   
@<TRIPOS>SUBSTRUCTURE
     1 Z0I         1 TEMP              0 ****  ****    0 ROOT
