@<TRIPOS>MOLECULE
Z0I
   23    24     1     0     0
SMALL
abcg2


@<TRIPOS>ATOM
      1 C10          9.6530   -38.3710    -2.7880 cc         1 Z0I      -0.247200
      2 N12         11.5610   -37.2780    -2.3960 na         1 Z0I      -0.202700
      3 C13         11.7000   -38.4900    -1.7870 ca         1 Z0I      -0.041200
      4 C01         15.5330   -36.7140    -0.0580 c3         1 Z0I      -0.183100
      5 C02         14.1080   -37.1360    -0.3080 c          1 Z0I       0.598100
      6 O03         13.1460   -36.4370    -0.0430 o          1 Z0I      -0.589100
      7 C05         12.7710   -39.0480    -1.0760 ca         1 Z0I      -0.055000
      8 C06         12.6210   -40.3460    -0.6190 ca         1 Z0I      -0.129000
      9 C07         11.4520   -41.0820    -0.8580 ca         1 Z0I      -0.128000
     10 C08         10.3940   -40.5320    -1.5500 ca         1 Z0I      -0.067000
     11 C09         10.5110   -39.2200    -2.0230 ca         1 Z0I      -0.088800
     12 C11         10.3320   -37.2050    -2.9860 cd         1 Z0I      -0.158100
     13 H1           8.6630   -38.6020    -3.1470 ha         1 Z0I       0.205000
     14 H2          12.2140   -36.5160    -2.3450 hn         1 Z0I       0.360000
     15 H3          15.5640   -35.6940     0.3120 hc         1 Z0I       0.063367
     16 H4          16.0020   -37.3680     0.6790 hc         1 Z0I       0.063367
     17 H5          16.1260   -36.7790    -0.9710 hc         1 Z0I       0.063367
     18 H6          14.8240   -38.9280    -0.9360 hn         1 Z0I       0.151000
     19 H7          13.4350   -40.8030    -0.0670 ha         1 Z0I       0.107000
     20 H8          11.3870   -42.0950    -0.4830 ha         1 Z0I       0.111000
     21 H9           9.4930   -41.1040    -1.7310 ha         1 Z0I       0.116000
     22 H10         10.0330   -36.3120    -3.5120 h4         1 Z0I       0.212000
     23 N04         13.9860   -38.3700    -0.8640 ns         1 Z0I      -0.159000
@<TRIPOS>BOND
     1     1    11 1   
     2     1    12 2   
     3     1    13 1   
     4     2     3 1   
     5     2    12 1   
     6     2    14 1   
     7     3     7 ar  
     8     3    11 ar  
     9     4     5 1   
    10     4    15 1   
    11     4    16 1   
    12     4    17 1   
    13     5     6 2   
    14     5    23 1   
    15     7     8 ar  
    16     7    23 1   
    17     8     9 ar  
    18     8    19 1   
    19     9    10 ar  
    20     9    20 1   
    21    10    11 ar  
    22    10    21 1   
    23    12    22 1   
    24    18    23 1   
@<TRIPOS>SUBSTRUCTURE
     1 Z0I         1 TEMP              0 ****  ****    0 ROOT
