@<TRIPOS>MOLECULE
Z0O
   34    35     1     0     0
SMALL
bcc


@<TRIPOS>ATOM
      1 O            1.8500    -1.2880    -0.4950 o          1 Z0O      -0.621100
      2 C            1.9210    -0.1720    -0.0030 c          1 Z0O       0.796100
      3 N3           3.0670     0.5030     0.2100 ns         1 Z0O      -0.591900
      4 C9           4.4120     0.0630    -0.1760 c3         1 Z0O       0.154400
      5 C12          4.5110    -0.1350    -1.6900 c3         1 Z0O      -0.105767
      6 C11          5.3540     1.1920     0.2410 c3         1 Z0O      -0.105767
      7 C10          4.8050    -1.2200     0.5590 c3         1 Z0O      -0.105767
      8 N            0.7960     0.5330     0.4010 ns         1 Z0O      -0.497100
      9 C1          -0.5170     0.0970     0.2860 ca         1 Z0O       0.105600
     10 C8          -0.8740    -1.2660     0.4750 ca         1 Z0O      -0.121000
     11 C7          -2.1790    -1.6590     0.3990 ca         1 Z0O      -0.141300
     12 C6          -3.2040    -0.7240     0.1470 ca         1 Z0O       0.267300
     13 C3          -2.8540     0.6380    -0.0170 ca         1 Z0O       0.317300
     14 C2          -1.5050     1.0270     0.0500 ca         1 Z0O      -0.242300
     15 N2          -4.4900    -1.1280     0.0750 nb         1 Z0O      -0.616000
     16 C5          -5.3870    -0.2090    -0.1550 ca         1 Z0O       0.283900
     17 C4          -5.0400     1.1520    -0.3220 ca         1 Z0O       0.301900
     18 N1          -3.8070     1.5720    -0.2540 nb         1 Z0O      -0.634000
     19 H3           3.0100     1.3950     0.6750 hn         1 Z0O       0.308500
     20 H            0.9040     1.5280     0.5310 hn         1 Z0O       0.310500
     21 H121         4.2290     0.7780    -2.2180 hc         1 Z0O       0.046144
     22 H122         5.5380    -0.3790    -1.9650 hc         1 Z0O       0.046144
     23 H123         3.8720    -0.9450    -2.0360 hc         1 Z0O       0.046144
     24 H111         5.3200     1.3590     1.3190 hc         1 Z0O       0.046144
     25 H112         6.3810     0.9430    -0.0260 hc         1 Z0O       0.046144
     26 H113         5.0960     2.1280    -0.2590 hc         1 Z0O       0.046144
     27 H101         4.1750    -2.0580     0.2700 hc         1 Z0O       0.046144
     28 H102         5.8390    -1.4810     0.3250 hc         1 Z0O       0.046144
     29 H103         4.7280    -1.0870     1.6390 hc         1 Z0O       0.046144
     30 H8          -0.1140    -1.9990     0.6950 ha         1 Z0O       0.164000
     31 H2          -1.2620     2.0730    -0.0950 ha         1 Z0O       0.146000
     32 H7          -2.4470    -2.6970     0.5470 ha         1 Z0O       0.154000
     33 H5          -6.4260    -0.5130    -0.2170 h4         1 Z0O       0.028100
     34 H4          -5.8150     1.8850    -0.5130 h4         1 Z0O       0.027100
@<TRIPOS>BOND
     1     1     2 2   
     2     2     3 1   
     3     2     8 1   
     4     3     4 1   
     5     3    19 1   
     6     4     5 1   
     7     4     6 1   
     8     4     7 1   
     9     5    21 1   
    10     5    22 1   
    11     5    23 1   
    12     6    24 1   
    13     6    25 1   
    14     6    26 1   
    15     7    27 1   
    16     7    28 1   
    17     7    29 1   
    18     8     9 1   
    19     8    20 1   
    20     9    10 ar  
    21     9    14 ar  
    22    10    11 ar  
    23    10    30 1   
    24    11    12 ar  
    25    11    32 1   
    26    12    13 ar  
    27    12    15 ar  
    28    13    14 ar  
    29    13    18 ar  
    30    14    31 1   
    31    15    16 ar  
    32    16    17 ar  
    33    16    33 1   
    34    17    18 ar  
    35    17    34 1   
@<TRIPOS>SUBSTRUCTURE
     1 Z0O         1 TEMP              0 ****  ****    0 ROOT
