@<TRIPOS>MOLECULE
Z0O
   34    35     1     0     0
SMALL
No Charge or Current Charge


@<TRIPOS>ATOM
      1 O            2.0570    -1.5500    -0.3320 o          1 Z0O      -0.621100
      2 C            1.9800    -0.3470    -0.1330 c          1 Z0O       0.662100
      3 N3           3.0790     0.4810    -0.0270 ns         1 Z0O      -0.524900
      4 C9           4.4950     0.1010    -0.1280 c3         1 Z0O       0.154400
      5 C12          4.8010    -0.4960    -1.5250 c3         1 Z0O      -0.105767
      6 C11          5.3240     1.3920     0.0610 c3         1 Z0O      -0.105767
      7 C10          4.8690    -0.9070     0.9880 c3         1 Z0O      -0.105767
      8 N            0.7950     0.3560     0.0140 ns         1 Z0O      -0.171000
      9 C1          -0.5680    -0.0500    -0.0150 ca         1 Z0O       0.013000
     10 C8          -0.9840    -1.3820    -0.2190 ca         1 Z0O      -0.103000
     11 C7          -2.3520    -1.7050    -0.2340 ca         1 Z0O      -0.058000
     12 C6          -3.3350    -0.7180    -0.0490 ca         1 Z0O       0.202000
     13 C3          -2.9180     0.6400     0.1590 ca         1 Z0O       0.252000
     14 C2          -1.5450     0.9440     0.1720 ca         1 Z0O      -0.159000
     15 N2          -4.6510    -1.0670    -0.0700 nb         1 Z0O      -0.616000
     16 C5          -5.5420    -0.0570     0.1170 ca         1 Z0O       0.283900
     17 C4          -5.1310     1.2820     0.3220 ca         1 Z0O       0.301900
     18 N1          -3.8200     1.6420     0.3450 nb         1 Z0O      -0.634000
     19 H3           2.8790     1.4590     0.1380 hn         1 Z0O       0.308500
     20 H            0.9170     1.3470     0.1730 hn         1 Z0O       0.144000
     21 H121         4.4930     0.1950    -2.3190 hc         1 Z0O       0.046144
     22 H122         5.8750    -0.6860    -1.6380 hc         1 Z0O       0.046144
     23 H123         4.2800    -1.4470    -1.6820 hc         1 Z0O       0.046144
     24 H111         5.1270     1.8450     1.0400 hc         1 Z0O       0.046144
     25 H112         6.3990     1.1800    -0.0030 hc         1 Z0O       0.046144
     26 H113         5.0800     2.1320    -0.7110 hc         1 Z0O       0.046144
     27 H101         4.3490    -1.8630     0.8610 hc         1 Z0O       0.046144
     28 H102         5.9460    -1.1140     0.9780 hc         1 Z0O       0.046144
     29 H103         4.6100    -0.5080     1.9760 hc         1 Z0O       0.046144
     30 H8          -0.2680    -2.1840    -0.3670 ha         1 Z0O       0.146000
     31 H2          -1.2380     1.9740     0.3300 ha         1 Z0O       0.128000
     32 H7          -2.6550    -2.7370    -0.3930 ha         1 Z0O       0.136000
     33 H5          -6.5990    -0.3220     0.1020 h4         1 Z0O       0.028100
     34 H4          -5.8630     2.0760     0.4690 h4         1 Z0O       0.027100
@<TRIPOS>BOND
     1     1     2 2   
     2     2     3 1   
     3     2     8 1   
     4     3     4 1   
     5     3    19 1   
     6     4     5 1   
     7     4     6 1   
     8     4     7 1   
     9     5    21 1   
    10     5    22 1   
    11     5    23 1   
    12     6    24 1   
    13     6    25 1   
    14     6    26 1   
    15     7    27 1   
    16     7    28 1   
    17     7    29 1   
    18     8     9 1   
    19     8    20 1   
    20     9    10 ar  
    21     9    14 ar  
    22    10    11 ar  
    23    10    30 1   
    24    11    12 ar  
    25    11    32 1   
    26    12    13 ar  
    27    12    15 ar  
    28    13    14 ar  
    29    13    18 ar  
    30    14    31 1   
    31    15    16 ar  
    32    16    17 ar  
    33    16    33 1   
    34    17    18 ar  
    35    17    34 1   
@<TRIPOS>SUBSTRUCTURE
     1 Z0O         1 TEMP              0 ****  ****    0 ROOT
