@<TRIPOS>MOLECULE
Z0P
  112   111     1     0     0
SMALL
No Charge or Current Charge


@<TRIPOS>ATOM
      1 O1          -1.7940     4.4760    -1.4910 oh         1 Z0P      -0.635000
      2 C1          -1.3120     5.6420    -0.7940 c3         1 Z0P       0.145600
      3 O2          -1.1440     3.4530     1.3110 os         1 Z0P      -0.416100
      4 C2          -0.0890     5.3410     0.1390 c3         1 Z0P       0.175300
      5 O3           0.8600     4.4600    -0.5160 os         1 Z0P      -0.427100
      6 C3          -0.4690     4.7130     1.5080 c3         1 Z0P       0.167600
      7 O4           1.5630     6.0830    -1.9830 o          1 Z0P      -0.498000
      8 C4          -1.5500     2.7600     2.4190 c          1 Z0P       0.590100
      9 O5          -1.4050     3.1470     3.5710 o          1 Z0P      -0.498000
     10 C5          -2.2710     1.4630     2.0440 c3         1 Z0P      -0.135400
     11 C6          -3.8000     1.6770     1.9460 c3         1 Z0P      -0.070400
     12 C7          -4.5660     0.3930     1.5600 c3         1 Z0P      -0.074400
     13 C8          -6.0920     0.6060     1.4620 c3         1 Z0P      -0.076400
     14 C9          -6.8590    -0.6770     1.0760 c3         1 Z0P      -0.072400
     15 C10         -8.3850    -0.4640     0.9780 c3         1 Z0P      -0.075400
     16 C11         -9.1520    -1.7480     0.5920 c3         1 Z0P      -0.072400
     17 C12        -10.6780    -1.5340     0.4940 c3         1 Z0P      -0.075400
     18 C13        -11.4450    -2.8170     0.1080 c3         1 Z0P      -0.073400
     19 C14        -12.9710    -2.6030     0.0100 c3         1 Z0P      -0.075400
     20 C15        -13.7390    -3.8860    -0.3760 c3         1 Z0P      -0.073400
     21 C16        -15.2650    -3.6720    -0.4750 c3         1 Z0P      -0.075400
     22 C17        -16.0320    -4.9550    -0.8610 c3         1 Z0P      -0.075400
     23 C18        -17.5580    -4.7410    -0.9590 c3         1 Z0P      -0.074400
     24 C19        -18.3240    -6.0210    -1.3450 c3         1 Z0P      -0.088100
     25 C20          1.5640     4.9220    -1.5970 c          1 Z0P       0.594100
     26 C21          2.4980     3.8480    -2.1590 c3         1 Z0P      -0.136400
     27 C22          3.8780     3.8770    -1.4600 c3         1 Z0P      -0.069400
     28 C23          4.8470     2.8000    -1.9940 c3         1 Z0P      -0.075400
     29 C24          6.2250     2.8290    -1.2970 c3         1 Z0P      -0.075400
     30 C25          7.1950     1.7520    -1.8300 c3         1 Z0P      -0.073400
     31 C26          8.5730     1.7820    -1.1330 c3         1 Z0P      -0.075400
     32 C27          9.5440     0.7050    -1.6670 c3         1 Z0P      -0.074400
     33 C28         10.9210     0.7340    -0.9690 c3         1 Z0P      -0.072400
     34 C29         11.8910    -0.3420    -1.4980 c3         1 Z0P      -0.043200
     35 C30         13.2330    -0.2990    -0.7900 c2         1 Z0P      -0.216200
     36 C31         13.6190    -1.0590     0.2500 c2         1 Z0P      -0.216200
     37 C32         12.7870    -2.1010     0.9730 c3         1 Z0P      -0.043200
     38 C33         13.0600    -3.5270     0.4510 c3         1 Z0P      -0.072400
     39 C34         12.2170    -4.6070     1.1640 c3         1 Z0P      -0.075400
     40 C35         12.4900    -6.0320     0.6370 c3         1 Z0P      -0.075400
     41 C36         11.6460    -7.1120     1.3490 c3         1 Z0P      -0.074400
     42 C37         11.9180    -8.5350     0.8230 c3         1 Z0P      -0.088100
     43 H11         -1.0170     6.4090    -1.5210 h1         1 Z0P       0.031200
     44 H12         -2.1160     6.0780    -0.1860 h1         1 Z0P       0.031200
     45 H21          0.3940     6.3010     0.3680 h1         1 Z0P       0.071700
     46 H31         -1.1150     5.4140     2.0520 h1         1 Z0P       0.057200
     47 H32          0.4460     4.5730     2.0990 h1         1 Z0P       0.057200
     48 H51         -1.9200     1.1320     1.0590 hc         1 Z0P       0.073700
     49 H52         -2.0620     0.7020     2.8050 hc         1 Z0P       0.073700
     50 H61         -4.1750     2.0450     2.9100 hc         1 Z0P       0.053200
     51 H62         -4.0070     2.4580     1.2040 hc         1 Z0P       0.053200
     52 H71         -4.1920     0.0260     0.5950 hc         1 Z0P       0.038200
     53 H72         -4.3580    -0.3880     2.3020 hc         1 Z0P       0.038200
     54 H81         -6.4670     0.9730     2.4270 hc         1 Z0P       0.039200
     55 H82         -6.3000     1.3870     0.7200 hc         1 Z0P       0.039200
     56 H91         -6.4840    -1.0440     0.1120 hc         1 Z0P       0.037700
     57 H92         -6.6510    -1.4580     1.8180 hc         1 Z0P       0.037700
     58 H101        -8.7600    -0.0970     1.9420 hc         1 Z0P       0.037700
     59 H102        -8.5930     0.3170     0.2360 hc         1 Z0P       0.037700
     60 H111        -8.7770    -2.1140    -0.3720 hc         1 Z0P       0.037700
     61 H112        -8.9440    -2.5280     1.3340 hc         1 Z0P       0.037700
     62 H121       -11.0530    -1.1670     1.4580 hc         1 Z0P       0.036700
     63 H122       -10.8860    -0.7530    -0.2480 hc         1 Z0P       0.036700
     64 H131       -11.0700    -3.1840    -0.8560 hc         1 Z0P       0.037700
     65 H132       -11.2380    -3.5980     0.8510 hc         1 Z0P       0.037700
     66 H141       -13.3460    -2.2360     0.9740 hc         1 Z0P       0.036700
     67 H142       -13.1780    -1.8220    -0.7330 hc         1 Z0P       0.036700
     68 H151       -13.3640    -4.2540    -1.3400 hc         1 Z0P       0.036700
     69 H152       -13.5320    -4.6670     0.3660 hc         1 Z0P       0.036700
     70 H161       -15.6400    -3.3050     0.4890 hc         1 Z0P       0.036700
     71 H162       -15.4720    -2.8910    -1.2170 hc         1 Z0P       0.036700
     72 H171       -15.6570    -5.3230    -1.8250 hc         1 Z0P       0.036700
     73 H172       -15.8250    -5.7360    -0.1180 hc         1 Z0P       0.036700
     74 H181       -17.9370    -4.3750     0.0030 hc         1 Z0P       0.036700
     75 H182       -17.7690    -3.9620    -1.7030 hc         1 Z0P       0.036700
     76 H191       -17.9920    -6.3930    -2.3220 hc         1 Z0P       0.031367
     77 H192       -18.1620    -6.8100    -0.6000 hc         1 Z0P       0.031367
     78 H193       -19.4000    -5.8200    -1.4020 hc         1 Z0P       0.031367
     79 H211         2.0540     2.8620    -1.9770 hc         1 Z0P       0.074200
     80 H212         2.6350     4.0180    -3.2330 hc         1 Z0P       0.074200
     81 H221         4.3290     4.8680    -1.5950 hc         1 Z0P       0.053200
     82 H222         3.7390     3.7350    -0.3800 hc         1 Z0P       0.053200
     83 H231         4.3960     1.8090    -1.8570 hc         1 Z0P       0.038200
     84 H232         4.9870     2.9430    -3.0730 hc         1 Z0P       0.038200
     85 H241         6.6770     3.8200    -1.4330 hc         1 Z0P       0.039700
     86 H242         6.0860     2.6860    -0.2180 hc         1 Z0P       0.039700
     87 H251         6.7440     0.7620    -1.6940 hc         1 Z0P       0.037700
     88 H252         7.3340     1.8960    -2.9090 hc         1 Z0P       0.037700
     89 H261         9.0250     2.7730    -1.2690 hc         1 Z0P       0.037700
     90 H262         8.4340     1.6380    -0.0540 hc         1 Z0P       0.037700
     91 H271         9.0920    -0.2850    -1.5310 hc         1 Z0P       0.037200
     92 H272         9.6830     0.8490    -2.7460 hc         1 Z0P       0.037200
     93 H281        11.3750     1.7240    -1.1050 hc         1 Z0P       0.039700
     94 H282        10.7820     0.5910     0.1090 hc         1 Z0P       0.039700
     95 H291        11.4260    -1.3280    -1.3870 hc         1 Z0P       0.044200
     96 H292        12.0390    -0.1990    -2.5760 hc         1 Z0P       0.044200
     97 H301        13.9300     0.4270    -1.2140 ha         1 Z0P       0.165000
     98 H311        14.6230    -0.9360     0.6620 ha         1 Z0P       0.165000
     99 H321        13.0010    -2.0620     2.0490 hc         1 Z0P       0.043700
    100 H322        11.7170    -1.8820     0.8710 hc         1 Z0P       0.043700
    101 H331        12.8510    -3.5590    -0.6260 hc         1 Z0P       0.039700
    102 H332        14.1250    -3.7570     0.5770 hc         1 Z0P       0.039700
    103 H341        12.4260    -4.5740     2.2400 hc         1 Z0P       0.036700
    104 H342        11.1520    -4.3740     1.0370 hc         1 Z0P       0.036700
    105 H351        12.2810    -6.0650    -0.4400 hc         1 Z0P       0.037200
    106 H352        13.5550    -6.2660     0.7630 hc         1 Z0P       0.037200
    107 H361        11.8540    -7.0840     2.4260 hc         1 Z0P       0.036700
    108 H362        10.5810    -6.8830     1.2230 hc         1 Z0P       0.036700
    109 H371        11.6860    -8.6040    -0.2460 hc         1 Z0P       0.031367
    110 H372        12.9710    -8.8070     0.9680 hc         1 Z0P       0.031367
    111 H373        11.2990    -9.2650     1.3580 hc         1 Z0P       0.031367
    112 H1O         -2.5680     4.7580    -2.0250 ho         1 Z0P       0.440000
@<TRIPOS>BOND
     1     1     2 1   
     2     1   112 1   
     3     2     4 1   
     4     2    43 1   
     5     2    44 1   
     6     3     6 1   
     7     3     8 1   
     8     4     5 1   
     9     4     6 1   
    10     4    45 1   
    11     5    25 1   
    12     6    46 1   
    13     6    47 1   
    14     7    25 2   
    15     8     9 2   
    16     8    10 1   
    17    10    11 1   
    18    10    48 1   
    19    10    49 1   
    20    11    12 1   
    21    11    50 1   
    22    11    51 1   
    23    12    13 1   
    24    12    52 1   
    25    12    53 1   
    26    13    14 1   
    27    13    54 1   
    28    13    55 1   
    29    14    15 1   
    30    14    56 1   
    31    14    57 1   
    32    15    16 1   
    33    15    58 1   
    34    15    59 1   
    35    16    17 1   
    36    16    60 1   
    37    16    61 1   
    38    17    18 1   
    39    17    62 1   
    40    17    63 1   
    41    18    19 1   
    42    18    64 1   
    43    18    65 1   
    44    19    20 1   
    45    19    66 1   
    46    19    67 1   
    47    20    21 1   
    48    20    68 1   
    49    20    69 1   
    50    21    22 1   
    51    21    70 1   
    52    21    71 1   
    53    22    23 1   
    54    22    72 1   
    55    22    73 1   
    56    23    24 1   
    57    23    74 1   
    58    23    75 1   
    59    24    76 1   
    60    24    77 1   
    61    24    78 1   
    62    25    26 1   
    63    26    27 1   
    64    26    79 1   
    65    26    80 1   
    66    27    28 1   
    67    27    81 1   
    68    27    82 1   
    69    28    29 1   
    70    28    83 1   
    71    28    84 1   
    72    29    30 1   
    73    29    85 1   
    74    29    86 1   
    75    30    31 1   
    76    30    87 1   
    77    30    88 1   
    78    31    32 1   
    79    31    89 1   
    80    31    90 1   
    81    32    33 1   
    82    32    91 1   
    83    32    92 1   
    84    33    34 1   
    85    33    93 1   
    86    33    94 1   
    87    34    35 1   
    88    34    95 1   
    89    34    96 1   
    90    35    36 2   
    91    35    97 1   
    92    36    37 1   
    93    36    98 1   
    94    37    38 1   
    95    37    99 1   
    96    37   100 1   
    97    38    39 1   
    98    38   101 1   
    99    38   102 1   
   100    39    40 1   
   101    39   103 1   
   102    39   104 1   
   103    40    41 1   
   104    40   105 1   
   105    40   106 1   
   106    41    42 1   
   107    41   107 1   
   108    41   108 1   
   109    42   109 1   
   110    42   110 1   
   111    42   111 1   
@<TRIPOS>SUBSTRUCTURE
     1 Z0P         1 TEMP              0 ****  ****    0 ROOT
