@<TRIPOS>MOLECULE
Z0P
  112   111     1     0     0
SMALL
abcg2


@<TRIPOS>ATOM
      1 O1          -0.8960     5.3510    -1.4880 oh         1 Z0P      -0.635000
      2 C1          -0.4050     6.2170    -0.4980 c3         1 Z0P       0.145600
      3 O2          -2.0650     4.0680     0.7800 os         1 Z0P      -0.416100
      4 C2          -0.0870     5.4540     0.7770 c3         1 Z0P       0.175300
      5 O3           0.7540     4.3260     0.5100 os         1 Z0P      -0.427100
      6 C3          -1.2790     4.9620     1.5640 c3         1 Z0P       0.167600
      7 O4           2.5910     5.5970     0.5280 o          1 Z0P      -0.498000
      8 C4          -3.1790     3.6020     1.3340 c          1 Z0P       0.590100
      9 O5          -3.5230     3.8860     2.4550 o          1 Z0P      -0.498000
     10 C5          -3.9420     2.7030     0.3990 c3         1 Z0P      -0.135400
     11 C6          -5.2620     2.2250     0.9830 c3         1 Z0P      -0.070400
     12 C7          -6.0670     1.3670     0.0170 c3         1 Z0P      -0.074400
     13 C8          -7.3870     0.9180     0.6310 c3         1 Z0P      -0.076400
     14 C9          -8.2520     0.0620    -0.2850 c3         1 Z0P      -0.072400
     15 C10         -9.5620    -0.3460     0.3790 c3         1 Z0P      -0.075400
     16 C11        -10.4670    -1.2070    -0.4910 c3         1 Z0P      -0.072400
     17 C12        -11.7650    -1.5810     0.2130 c3         1 Z0P      -0.075400
     18 C13        -12.7010    -2.4430    -0.6230 c3         1 Z0P      -0.073400
     19 C14        -13.9920    -2.7910     0.1100 c3         1 Z0P      -0.075400
     20 C15        -14.9480    -3.6530    -0.7040 c3         1 Z0P      -0.073400
     21 C16        -16.2340    -3.9830     0.0440 c3         1 Z0P      -0.075400
     22 C17        -17.2000    -4.8440    -0.7580 c3         1 Z0P      -0.075400
     23 C18        -18.4890    -5.1620    -0.0080 c3         1 Z0P      -0.074400
     24 C19        -19.4470    -6.0220    -0.8190 c3         1 Z0P      -0.088100
     25 C20          2.0670     4.5180     0.4090 c          1 Z0P       0.594100
     26 C21          2.7980     3.2310     0.1410 c3         1 Z0P      -0.136400
     27 C22          4.2970     3.4190    -0.0300 c3         1 Z0P      -0.069400
     28 C23          5.0260     2.1080    -0.2930 c3         1 Z0P      -0.075400
     29 C24          6.5280     2.3070    -0.4530 c3         1 Z0P      -0.075400
     30 C25          7.2940     1.0180    -0.7210 c3         1 Z0P      -0.073400
     31 C26          8.7940     1.2420    -0.8660 c3         1 Z0P      -0.075400
     32 C27          9.5790    -0.0340    -1.1390 c3         1 Z0P      -0.074400
     33 C28         11.0780     0.2080    -1.2660 c3         1 Z0P      -0.072400
     34 C29         11.8710    -1.0680    -1.5480 c3         1 Z0P      -0.043200
     35 C30         13.3340    -0.7970    -1.7190 c2         1 Z0P      -0.216200
     36 C31         14.3400    -1.2780    -0.9890 c2         1 Z0P      -0.216200
     37 C32         14.2550    -2.2440     0.1520 c3         1 Z0P      -0.043200
     38 C33         14.7500    -3.6360    -0.2450 c3         1 Z0P      -0.072400
     39 C34         14.7120    -4.6370     0.9030 c3         1 Z0P      -0.075400
     40 C35         15.2020    -6.0220     0.5010 c3         1 Z0P      -0.075400
     41 C36         15.1420    -7.0400     1.6330 c3         1 Z0P      -0.074400
     42 C37         15.6330    -8.4190     1.2160 c3         1 Z0P      -0.088100
     43 H11          0.5060     6.7280    -0.8290 h1         1 Z0P       0.031200
     44 H12         -1.1240     7.0050    -0.2340 h1         1 Z0P       0.031200
     45 H21          0.4240     6.1540     1.4450 h1         1 Z0P       0.071700
     46 H31         -1.8700     5.8320     1.8610 h1         1 Z0P       0.057200
     47 H32         -0.9380     4.4670     2.4770 h1         1 Z0P       0.057200
     48 H51         -4.1060     3.2440    -0.5390 hc         1 Z0P       0.073700
     49 H52         -3.3030     1.8530     0.1370 hc         1 Z0P       0.073700
     50 H61         -5.0760     1.6570     1.8980 hc         1 Z0P       0.053200
     51 H62         -5.8640     3.0900     1.2780 hc         1 Z0P       0.053200
     52 H71         -6.2620     1.9290    -0.9030 hc         1 Z0P       0.038200
     53 H72         -5.4820     0.4900    -0.2810 hc         1 Z0P       0.038200
     54 H81         -7.1820     0.3620     1.5530 hc         1 Z0P       0.039200
     55 H82         -7.9560     1.8030     0.9370 hc         1 Z0P       0.039200
     56 H91         -8.4650     0.6110    -1.2090 hc         1 Z0P       0.037700
     57 H92         -7.6980    -0.8340    -0.5850 hc         1 Z0P       0.037700
     58 H101        -9.3390    -0.8830     1.3080 hc         1 Z0P       0.037700
     59 H102       -10.1050     0.5570     0.6800 hc         1 Z0P       0.037700
     60 H111       -10.6960    -0.6750    -1.4220 hc         1 Z0P       0.037700
     61 H112        -9.9350    -2.1190    -0.7870 hc         1 Z0P       0.037700
     62 H121       -11.5290    -2.1050     1.1460 hc         1 Z0P       0.036700
     63 H122       -12.2880    -0.6650     0.5100 hc         1 Z0P       0.036700
     64 H131       -12.9420    -1.9230    -1.5570 hc         1 Z0P       0.037700
     65 H132       -12.1880    -3.3660    -0.9150 hc         1 Z0P       0.037700
     66 H141       -13.7470    -3.3070     1.0450 hc         1 Z0P       0.036700
     67 H142       -14.5000    -1.8650     0.4030 hc         1 Z0P       0.036700
     68 H151       -15.1940    -3.1410    -1.6400 hc         1 Z0P       0.036700
     69 H152       -14.4460    -4.5840    -0.9920 hc         1 Z0P       0.036700
     70 H161       -15.9870    -4.4930     0.9820 hc         1 Z0P       0.036700
     71 H162       -16.7330    -3.0500     0.3330 hc         1 Z0P       0.036700
     72 H171       -17.4450    -4.3360    -1.6980 hc         1 Z0P       0.036700
     73 H172       -16.7060    -5.7800    -1.0420 hc         1 Z0P       0.036700
     74 H181       -18.2440    -5.6680     0.9300 hc         1 Z0P       0.036700
     75 H182       -18.9820    -4.2260     0.2740 hc         1 Z0P       0.036700
     76 H191       -19.7250    -5.5290    -1.7520 hc         1 Z0P       0.031367
     77 H192       -18.9920    -6.9800    -1.0790 hc         1 Z0P       0.031367
     78 H193       -20.3660    -6.2310    -0.2700 hc         1 Z0P       0.031367
     79 H211         2.5880     2.5410     0.9650 hc         1 Z0P       0.074200
     80 H212         2.3610     2.7660    -0.7480 hc         1 Z0P       0.074200
     81 H221         4.4880     4.1100    -0.8550 hc         1 Z0P       0.053200
     82 H222         4.7120     3.8880     0.8670 hc         1 Z0P       0.053200
     83 H231         4.8370     1.4090     0.5290 hc         1 Z0P       0.038200
     84 H232         4.6210     1.6360    -1.1950 hc         1 Z0P       0.038200
     85 H241         6.7120     3.0130    -1.2710 hc         1 Z0P       0.039700
     86 H242         6.9260     2.7820     0.4510 hc         1 Z0P       0.039700
     87 H251         7.1100     0.3080     0.0920 hc         1 Z0P       0.037700
     88 H252         6.9070     0.5460    -1.6310 hc         1 Z0P       0.037700
     89 H261         8.9750     1.9590    -1.6750 hc         1 Z0P       0.037700
     90 H262         9.1770     1.7130     0.0460 hc         1 Z0P       0.037700
     91 H271         9.3950    -0.7550    -0.3360 hc         1 Z0P       0.037200
     92 H272         9.2070    -0.5010    -2.0580 hc         1 Z0P       0.037200
     93 H281        11.2620     0.9340    -2.0660 hc         1 Z0P       0.039700
     94 H282        11.4530     0.6670    -0.3460 hc         1 Z0P       0.039700
     95 H291        11.6950    -1.7920    -0.7490 hc         1 Z0P       0.044200
     96 H292        11.4860    -1.5260    -2.4670 hc         1 Z0P       0.044200
     97 H301        13.5820    -0.1200    -2.5330 ha         1 Z0P       0.165000
     98 H311        15.3470    -0.9740    -1.2620 ha         1 Z0P       0.165000
     99 H321        14.8650    -1.8760     0.9830 hc         1 Z0P       0.043700
    100 H322        13.2330    -2.3180     0.5320 hc         1 Z0P       0.043700
    101 H331        14.1370    -4.0060    -1.0740 hc         1 Z0P       0.039700
    102 H332        15.7710    -3.5620    -0.6320 hc         1 Z0P       0.039700
    103 H341        15.3200    -4.2630     1.7350 hc         1 Z0P       0.036700
    104 H342        13.6880    -4.7100     1.2850 hc         1 Z0P       0.036700
    105 H351        14.6060    -6.3860    -0.3440 hc         1 Z0P       0.037200
    106 H352        16.2320    -5.9500     0.1330 hc         1 Z0P       0.037200
    107 H361        15.7370    -6.6790     2.4780 hc         1 Z0P       0.036700
    108 H362        14.1130    -7.1130     1.9990 hc         1 Z0P       0.036700
    109 H371        15.0380    -8.8150     0.3910 hc         1 Z0P       0.031367
    110 H372        16.6720    -8.3860     0.8840 hc         1 Z0P       0.031367
    111 H373        15.5720    -9.1330     2.0380 hc         1 Z0P       0.031367
    112 H1O         -0.9040     5.8340    -2.3190 ho         1 Z0P       0.440000
@<TRIPOS>BOND
     1     1     2 1   
     2     1   112 1   
     3     2     4 1   
     4     2    43 1   
     5     2    44 1   
     6     3     6 1   
     7     3     8 1   
     8     4     5 1   
     9     4     6 1   
    10     4    45 1   
    11     5    25 1   
    12     6    46 1   
    13     6    47 1   
    14     7    25 2   
    15     8     9 2   
    16     8    10 1   
    17    10    11 1   
    18    10    48 1   
    19    10    49 1   
    20    11    12 1   
    21    11    50 1   
    22    11    51 1   
    23    12    13 1   
    24    12    52 1   
    25    12    53 1   
    26    13    14 1   
    27    13    54 1   
    28    13    55 1   
    29    14    15 1   
    30    14    56 1   
    31    14    57 1   
    32    15    16 1   
    33    15    58 1   
    34    15    59 1   
    35    16    17 1   
    36    16    60 1   
    37    16    61 1   
    38    17    18 1   
    39    17    62 1   
    40    17    63 1   
    41    18    19 1   
    42    18    64 1   
    43    18    65 1   
    44    19    20 1   
    45    19    66 1   
    46    19    67 1   
    47    20    21 1   
    48    20    68 1   
    49    20    69 1   
    50    21    22 1   
    51    21    70 1   
    52    21    71 1   
    53    22    23 1   
    54    22    72 1   
    55    22    73 1   
    56    23    24 1   
    57    23    74 1   
    58    23    75 1   
    59    24    76 1   
    60    24    77 1   
    61    24    78 1   
    62    25    26 1   
    63    26    27 1   
    64    26    79 1   
    65    26    80 1   
    66    27    28 1   
    67    27    81 1   
    68    27    82 1   
    69    28    29 1   
    70    28    83 1   
    71    28    84 1   
    72    29    30 1   
    73    29    85 1   
    74    29    86 1   
    75    30    31 1   
    76    30    87 1   
    77    30    88 1   
    78    31    32 1   
    79    31    89 1   
    80    31    90 1   
    81    32    33 1   
    82    32    91 1   
    83    32    92 1   
    84    33    34 1   
    85    33    93 1   
    86    33    94 1   
    87    34    35 1   
    88    34    95 1   
    89    34    96 1   
    90    35    36 2   
    91    35    97 1   
    92    36    37 1   
    93    36    98 1   
    94    37    38 1   
    95    37    99 1   
    96    37   100 1   
    97    38    39 1   
    98    38   101 1   
    99    38   102 1   
   100    39    40 1   
   101    39   103 1   
   102    39   104 1   
   103    40    41 1   
   104    40   105 1   
   105    40   106 1   
   106    41    42 1   
   107    41   107 1   
   108    41   108 1   
   109    42   109 1   
   110    42   110 1   
   111    42   111 1   
@<TRIPOS>SUBSTRUCTURE
     1 Z0P         1 TEMP              0 ****  ****    0 ROOT
