@<TRIPOS>MOLECULE
Z0W
   20    22     1     0     0
SMALL
abcg2


@<TRIPOS>ATOM
      1 C2          -2.8380     1.0780    -0.0010 ca         1 Z0W       0.084900
      2 N3          -3.2920    -0.1760     0.0040 nb         1 Z0W      -0.161000
      3 C4          -2.4120    -1.1670     0.0030 ca         1 Z0W       0.090900
      4 C5          -1.0580    -0.8750    -0.0060 ca         1 Z0W      -0.114200
      5 N1          -1.5740     1.4670    -0.0080 nb         1 Z0W      -0.125000
      6 C6          -0.6820     0.4830    -0.0110 cp         1 Z0W       0.111500
      7 C7           0.7530     0.5130    -0.0170 cp         1 Z0W      -0.206500
      8 C8           1.6980     1.5400    -0.0250 ca         1 Z0W      -0.022000
      9 C12          1.1670    -0.8340    -0.0170 ca         1 Z0W       0.008800
     10 C11          2.5180    -1.1770    -0.0240 ca         1 Z0W      -0.150000
     11 C10          3.4350    -0.1440    -0.0320 ca         1 Z0W      -0.064000
     12 C9           3.0360     1.2030    -0.0320 ca         1 Z0W      -0.153000
     13 N2           0.0650    -1.6500    -0.0100 na         1 Z0W      -0.218600
     14 H2          -3.5880     1.8590     0.0010 h5         1 Z0W       0.051100
     15 HN2          0.0840    -2.6560    -0.0070 hn         1 Z0W       0.359000
     16 H4          -2.7880    -2.1840     0.0080 h4         1 Z0W       0.025100
     17 H8           1.3840     2.5760    -0.0250 ha         1 Z0W       0.132000
     18 H9           3.7890     1.9790    -0.0380 ha         1 Z0W       0.118000
     19 H11          2.8370    -2.2110    -0.0250 ha         1 Z0W       0.119000
     20 H10          4.4910    -0.3790    -0.0380 ha         1 Z0W       0.114000
@<TRIPOS>BOND
     1     1     2 ar  
     2     1     5 ar  
     3     1    14 1   
     4     2     3 ar  
     5     3     4 ar  
     6     3    16 1   
     7     4     6 ar  
     8     4    13 1   
     9     5     6 ar  
    10     6     7 1   
    11     7     8 ar  
    12     7     9 ar  
    13     8    12 ar  
    14     8    17 1   
    15     9    10 ar  
    16     9    13 1   
    17    10    11 ar  
    18    10    19 1   
    19    11    12 ar  
    20    11    20 1   
    21    12    18 1   
    22    13    15 1   
@<TRIPOS>SUBSTRUCTURE
     1 Z0W         1 TEMP              0 ****  ****    0 ROOT
