@<TRIPOS>MOLECULE
Z0W
   20    22     1     0     0
SMALL
No Charge or Current Charge


@<TRIPOS>ATOM
      1 C2          -2.8660     1.1070    -0.0000 ca         1 Z0W       0.084900
      2 N3          -3.3670    -0.1630     0.0050 nb         1 Z0W      -0.161000
      3 C4          -2.4730    -1.1840     0.0030 ca         1 Z0W       0.090900
      4 C5          -1.1080    -0.8760    -0.0050 ca         1 Z0W      -0.114200
      5 N1          -1.5570     1.4730    -0.0080 nb         1 Z0W      -0.125000
      6 C6          -0.6920     0.4470    -0.0100 cp         1 Z0W       0.111500
      7 C7           0.7630     0.4720    -0.0180 cp         1 Z0W      -0.206500
      8 C8           1.6880     1.5340    -0.0260 ca         1 Z0W      -0.022000
      9 C12          1.2110    -0.8490    -0.0180 ca         1 Z0W       0.008800
     10 C11          2.5660    -1.1900    -0.0240 ca         1 Z0W      -0.150000
     11 C10          3.5020    -0.1320    -0.0320 ca         1 Z0W      -0.064000
     12 C9           3.0650     1.2180    -0.0320 ca         1 Z0W      -0.153000
     13 N2           0.0600    -1.6580    -0.0100 na         1 Z0W      -0.218600
     14 H2          -3.5950     1.9160     0.0020 h5         1 Z0W       0.051100
     15 HN2          0.0760    -2.6730    -0.0080 hn         1 Z0W       0.359000
     16 H4          -2.8530    -2.2040     0.0070 h4         1 Z0W       0.025100
     17 H8           1.3510     2.5690    -0.0260 ha         1 Z0W       0.132000
     18 H9           3.7990     2.0200    -0.0380 ha         1 Z0W       0.118000
     19 H11          2.8890    -2.2290    -0.0240 ha         1 Z0W       0.119000
     20 H10          4.5670    -0.3540    -0.0370 ha         1 Z0W       0.114000
@<TRIPOS>BOND
     1     1     2 ar  
     2     1     5 ar  
     3     1    14 1   
     4     2     3 ar  
     5     3     4 ar  
     6     3    16 1   
     7     4     6 ar  
     8     4    13 1   
     9     5     6 ar  
    10     6     7 1   
    11     7     8 ar  
    12     7     9 ar  
    13     8    12 ar  
    14     8    17 1   
    15     9    10 ar  
    16     9    13 1   
    17    10    11 ar  
    18    10    19 1   
    19    11    12 ar  
    20    11    20 1   
    21    12    18 1   
    22    13    15 1   
@<TRIPOS>SUBSTRUCTURE
     1 Z0W         1 TEMP              0 ****  ****    0 ROOT
