@<TRIPOS>MOLECULE
Z12
   43    46     1     0     0
SMALL
No Charge or Current Charge


@<TRIPOS>ATOM
      1 Cl32        -4.3150     0.1670    -2.2330 cl         1 Z12      -0.172000
      2 C31         -4.3590    -0.3130    -0.5360 ca         1 Z12       0.203000
      3 C30         -4.7350    -1.6340    -0.2480 ca         1 Z12      -0.119000
      4 C28         -4.7710    -2.0880     1.0770 ca         1 Z12       0.175000
      5 Cl29        -5.2420    -3.7470     1.4240 cl         1 Z12      -0.168000
      6 C27         -4.4310    -1.2240     2.1260 ca         1 Z12      -0.121000
      7 C26         -4.0530     0.1010     1.8510 ca         1 Z12       0.008000
      8 C25         -4.0160     0.5660     0.5170 ca         1 Z12      -0.300500
      9 S20         -3.5090     2.2600     0.2020 sy         1 Z12       1.157600
     10 O21         -4.4610     2.9090    -0.7000 o          1 Z12      -0.517000
     11 O22         -3.0540     2.8990     1.4390 o          1 Z12      -0.517000
     12 N23         -2.1290     2.1430    -0.7480 nu         1 Z12      -0.874100
     13 C13         -0.9950     1.3520    -0.5780 ca         1 Z12       0.261000
     14 C14         -0.2110     1.0490    -1.7040 ca         1 Z12      -0.105500
     15 C15          0.9340     0.2440    -1.5840 ca         1 Z12       0.118500
     16 Cl16         1.8850    -0.1170    -3.0240 cl         1 Z12      -0.149000
     17 C17          1.3080    -0.2660    -0.3250 ca         1 Z12       0.102100
     18 C18          0.5260     0.0370     0.8060 ca         1 Z12       0.118500
     19 Cl19         0.9710    -0.5810     2.3960 cl         1 Z12      -0.149000
     20 C12         -0.6150     0.8440     0.6790 ca         1 Z12      -0.105500
     21 O11          2.4270    -1.0610    -0.1970 os         1 Z12      -0.227200
     22 C8           3.7030    -0.5380    -0.1250 ca         1 Z12       0.072100
     23 C7           4.7960    -1.4160    -0.1430 ca         1 Z12      -0.093000
     24 C6           6.0950    -0.8770    -0.0670 ca         1 Z12      -0.051000
     25 C1           7.2140    -1.7320    -0.0860 ca         1 Z12      -0.099000
     26 C9           3.9540     0.8510    -0.0250 ca         1 Z12       0.310900
     27 N10          5.2030     1.3760     0.0490 nb         1 Z12      -0.634000
     28 C5           6.2620     0.5310     0.0280 ca         1 Z12       0.245000
     29 C4           7.5700     1.0470     0.1020 ca         1 Z12      -0.071000
     30 C3           8.6880     0.1930     0.0830 ca         1 Z12      -0.110000
     31 C2           8.5090    -1.1960    -0.0110 ca         1 Z12      -0.097000
     32 H30         -4.9950    -2.3110    -1.0570 ha         1 Z12       0.150000
     33 H27         -4.4590    -1.5800     3.1530 ha         1 Z12       0.143000
     34 H26         -3.7920     0.7570     2.6810 ha         1 Z12       0.155000
     35 HN23        -2.4310     2.3440    -1.6940 hn         1 Z12       0.503000
     36 H14         -0.4890     1.4350    -2.6800 ha         1 Z12       0.154000
     37 H12         -1.1920     1.0720     1.5680 ha         1 Z12       0.154000
     38 H7           4.6360    -2.4890    -0.2170 ha         1 Z12       0.137000
     39 H1           7.0810    -2.8090    -0.1590 ha         1 Z12       0.118000
     40 H9           3.1380     1.5720    -0.0010 h4         1 Z12       0.028100
     41 H4           7.7170     2.1210     0.1760 ha         1 Z12       0.132000
     42 H3           9.6910     0.6100     0.1420 ha         1 Z12       0.118000
     43 H2           9.3740    -1.8570    -0.0250 ha         1 Z12       0.116000
@<TRIPOS>BOND
     1     1     2 1   
     2     2     3 ar  
     3     2     8 ar  
     4     3     4 ar  
     5     3    32 1   
     6     4     5 1   
     7     4     6 ar  
     8     6     7 ar  
     9     6    33 1   
    10     7     8 ar  
    11     7    34 1   
    12     8     9 1   
    13     9    10 2   
    14     9    11 2   
    15     9    12 1   
    16    12    13 1   
    17    12    35 1   
    18    13    14 ar  
    19    13    20 ar  
    20    14    15 ar  
    21    14    36 1   
    22    15    16 1   
    23    15    17 ar  
    24    17    18 ar  
    25    17    21 1   
    26    18    19 1   
    27    18    20 ar  
    28    20    37 1   
    29    21    22 1   
    30    22    23 ar  
    31    22    26 ar  
    32    23    24 ar  
    33    23    38 1   
    34    24    25 ar  
    35    24    28 ar  
    36    25    31 ar  
    37    25    39 1   
    38    26    27 ar  
    39    26    40 1   
    40    27    28 ar  
    41    28    29 ar  
    42    29    30 ar  
    43    29    41 1   
    44    30    31 ar  
    45    30    42 1   
    46    31    43 1   
@<TRIPOS>SUBSTRUCTURE
     1 Z12         1 TEMP              0 ****  ****    0 ROOT
