@<TRIPOS>MOLECULE
Z12
   43    46     1     0     0
SMALL
abcg2


@<TRIPOS>ATOM
      1 CL32        -4.0940     0.7580    -2.4080 cl         1 Z12      -0.172000
      2 C31         -4.0340    -0.1920    -0.9710 ca         1 Z12       0.203000
      3 C30         -4.2040    -1.5590    -1.0960 ca         1 Z12      -0.119000
      4 C28         -4.1360    -2.3500     0.0410 ca         1 Z12       0.175000
      5 CL29        -4.3490    -4.0510    -0.1160 cl         1 Z12      -0.168000
      6 C27         -3.8940    -1.8020     1.2890 ca         1 Z12      -0.121000
      7 C26         -3.7230    -0.4340     1.3990 ca         1 Z12       0.008000
      8 C25         -3.7950     0.3810     0.2760 ca         1 Z12      -0.300500
      9 S20         -3.5680     2.1320     0.4920 sy         1 Z12       1.157600
     10 O21         -4.6200     2.8600    -0.1830 o          1 Z12      -0.517000
     11 O22         -3.3280     2.3460     1.9050 o          1 Z12      -0.517000
     12 N23         -2.1580     2.4910    -0.3170 nu         1 Z12      -0.874100
     13 C13         -1.0110     1.7100    -0.0480 ca         1 Z12       0.261000
     14 C14         -0.5420     0.8200    -1.0060 ca         1 Z12      -0.105500
     15 C15          0.5780     0.0560    -0.7330 ca         1 Z12       0.118500
     16 CL16         1.1810    -1.0460    -1.9050 cl         1 Z12      -0.149000
     17 C17          1.2200     0.1420     0.4980 ca         1 Z12       0.102100
     18 C18          0.7420     1.0490     1.4360 ca         1 Z12       0.118500
     19 CL19         1.5680     1.1920     2.9370 cl         1 Z12      -0.149000
     20 C12         -0.3660     1.8370     1.1760 ca         1 Z12      -0.105500
     21 O11          2.2620    -0.6670     0.8000 os         1 Z12      -0.227200
     22 C8           3.5220    -0.3370     0.3860 ca         1 Z12       0.072100
     23 C7           4.5120    -1.2580     0.5700 ca         1 Z12      -0.093000
     24 C6           5.8200    -0.9330     0.1640 ca         1 Z12      -0.051000
     25 C1           6.9100    -1.8220     0.3170 ca         1 Z12      -0.099000
     26 C9           3.8320     0.9090    -0.2020 ca         1 Z12       0.310900
     27 N10          5.0360     1.2280    -0.5900 nb         1 Z12      -0.634000
     28 C5           6.0400     0.3380    -0.4240 ca         1 Z12       0.245000
     29 C4           7.3430     0.6900    -0.8460 ca         1 Z12      -0.071000
     30 C3           8.3780    -0.1890    -0.6860 ca         1 Z12      -0.110000
     31 C2           8.1600    -1.4550    -0.0990 ca         1 Z12      -0.097000
     32 H30         -4.3870    -1.9970    -2.0670 ha         1 Z12       0.150000
     33 H27         -3.8380    -2.4280     2.1690 ha         1 Z12       0.143000
     34 H26         -3.5300    -0.0060     2.3720 ha         1 Z12       0.155000
     35 HN23        -2.3190     2.6990    -1.2970 hn         1 Z12       0.503000
     36 H14         -1.0380     0.7260    -1.9630 ha         1 Z12       0.154000
     37 H12         -0.7050     2.5530     1.9090 ha         1 Z12       0.154000
     38 H7           4.2990    -2.2210     1.0190 ha         1 Z12       0.137000
     39 H1           6.7420    -2.7930     0.7680 ha         1 Z12       0.118000
     40 H9           3.0600     1.6580    -0.3520 h4         1 Z12       0.028100
     41 H4           7.4970     1.6630    -1.2940 ha         1 Z12       0.132000
     42 H3           9.3740     0.0830    -1.0090 ha         1 Z12       0.118000
     43 H2           8.9910    -2.1360     0.0210 ha         1 Z12       0.116000
@<TRIPOS>BOND
     1     1     2 1   
     2     2     3 ar  
     3     2     8 ar  
     4     3     4 ar  
     5     3    32 1   
     6     4     5 1   
     7     4     6 ar  
     8     6     7 ar  
     9     6    33 1   
    10     7     8 ar  
    11     7    34 1   
    12     8     9 1   
    13     9    10 2   
    14     9    11 2   
    15     9    12 1   
    16    12    13 1   
    17    12    35 1   
    18    13    14 ar  
    19    13    20 ar  
    20    14    15 ar  
    21    14    36 1   
    22    15    16 1   
    23    15    17 ar  
    24    17    18 ar  
    25    17    21 1   
    26    18    19 1   
    27    18    20 ar  
    28    20    37 1   
    29    21    22 1   
    30    22    23 ar  
    31    22    26 ar  
    32    23    24 ar  
    33    23    38 1   
    34    24    25 ar  
    35    24    28 ar  
    36    25    31 ar  
    37    25    39 1   
    38    26    27 ar  
    39    26    40 1   
    40    27    28 ar  
    41    28    29 ar  
    42    29    30 ar  
    43    29    41 1   
    44    30    31 ar  
    45    30    42 1   
    46    31    43 1   
@<TRIPOS>SUBSTRUCTURE
     1 Z12         1 TEMP              0 ****  ****    0 ROOT
