@<TRIPOS>MOLECULE
Z13
   34    35     1     0     0
SMALL
No Charge or Current Charge


@<TRIPOS>ATOM
      1 F2           4.8060     2.3300    -1.0540 f          1 Z13      -0.113667
      2 F3           6.2120     0.7620    -1.5940 f          1 Z13      -0.113667
      3 F4           6.1650     1.5190     0.4370 f          1 Z13      -0.113667
      4 N1          -0.0380    -2.2000     0.8980 n2         1 Z13      -0.577900
      5 C2          -0.6390    -1.7520    -0.1600 ce         1 Z13       0.470800
      6 C4           2.8220    -0.8800     1.3910 ca         1 Z13      -0.103000
      7 C5           2.3520    -1.7850     0.4220 ca         1 Z13      -0.051300
      8 C6           2.8670    -1.7200    -0.8860 ca         1 Z13      -0.103000
      9 C7           3.8430    -0.7650    -1.2200 ca         1 Z13      -0.060500
     10 C8           3.7980     0.0760     1.0600 ca         1 Z13      -0.060500
     11 C15          4.3250     0.1380    -0.2480 ca         1 Z13      -0.193300
     12 C16          5.3810     1.1880    -0.6150 c3         1 Z13       0.356300
     13 H1           1.5690    -3.2860     1.7390 h1         1 Z13       0.054700
     14 H2           1.2830    -3.6160     0.0310 h1         1 Z13       0.054700
     15 H5          -0.1990    -1.8690    -1.1530 h4         1 Z13      -0.028200
     16 H8           2.4260    -0.9150     2.4030 ha         1 Z13       0.121000
     17 H9           2.5100    -2.4080    -1.6490 ha         1 Z13       0.121000
     18 H10          4.2210    -0.7310    -2.2410 ha         1 Z13       0.131000
     19 H11          4.1400     0.7690     1.8270 ha         1 Z13       0.131000
     20 C3          -1.9590    -1.0510    -0.0890 ca         1 Z13      -0.121900
     21 C9          -2.5620    -0.5900    -1.2760 ca         1 Z13      -0.086500
     22 C10         -3.8010     0.0730    -1.2420 ca         1 Z13      -0.068500
     23 C11         -4.4620     0.2940    -0.0150 ca         1 Z13      -0.184300
     24 C12         -3.8630    -0.1750     1.1740 ca         1 Z13      -0.068500
     25 C13         -2.6240    -0.8380     1.1380 ca         1 Z13      -0.086500
     26 C14         -5.8190     1.0080     0.0230 c3         1 Z13       0.356300
     27 H3          -2.0690    -0.7470    -2.2350 ha         1 Z13       0.131000
     28 H4          -4.2450     0.4110    -2.1760 ha         1 Z13       0.132500
     29 H6          -4.3560    -0.0310     2.1330 ha         1 Z13       0.132500
     30 H7          -2.1850    -1.1860     2.0710 ha         1 Z13       0.131000
     31 F6          -6.8390     0.1290    -0.0960 f          1 Z13      -0.112667
     32 F5          -6.0130     1.6850     1.1780 f          1 Z13      -0.112667
     33 F1          -5.9550     1.9090    -0.9780 f          1 Z13      -0.112667
     34 C1           1.2890    -2.8170     0.7860 c3         1 Z13       0.147100
@<TRIPOS>BOND
     1     1    12 1   
     2     2    12 1   
     3     3    12 1   
     4     4     5 2   
     5     4    34 1   
     6     5    15 1   
     7     5    20 1   
     8     6     7 ar  
     9     6    10 ar  
    10     6    16 1   
    11     7     8 ar  
    12     7    34 1   
    13     8     9 ar  
    14     8    17 1   
    15     9    11 ar  
    16     9    18 1   
    17    10    11 ar  
    18    10    19 1   
    19    11    12 1   
    20    13    34 1   
    21    14    34 1   
    22    20    21 ar  
    23    20    25 ar  
    24    21    22 ar  
    25    21    27 1   
    26    22    23 ar  
    27    22    28 1   
    28    23    24 ar  
    29    23    26 1   
    30    24    25 ar  
    31    24    29 1   
    32    25    30 1   
    33    26    31 1   
    34    26    32 1   
    35    26    33 1   
@<TRIPOS>SUBSTRUCTURE
     1 Z13         1 TEMP              0 ****  ****    0 ROOT
