@<TRIPOS>MOLECULE
Z13
   34    35     1     0     0
SMALL
bcc


@<TRIPOS>ATOM
      1 F2           5.2470     2.3920    -0.0720 f          1 Z13      -0.234967
      2 F3           6.4140     0.9680    -1.1800 f          1 Z13      -0.234967
      3 F4           6.5440     1.0300     0.9680 f          1 Z13      -0.234967
      4 N1           0.0330    -1.7710     0.5070 n2         1 Z13      -0.577900
      5 C2          -0.8940    -1.8790    -0.3450 ce         1 Z13       0.470800
      6 C4           3.0500    -1.1570     1.3600 ca         1 Z13      -0.121000
      7 C5           2.4180    -1.6200     0.2110 ca         1 Z13      -0.051300
      8 C6           2.8720    -1.1800    -1.0270 ca         1 Z13      -0.121000
      9 C7           3.9420    -0.3040    -1.1220 ca         1 Z13      -0.078500
     10 C8           4.1200    -0.2810     1.2780 ca         1 Z13      -0.078500
     11 C15          4.5710     0.1450     0.0330 ca         1 Z13      -0.193300
     12 C16          5.6950     1.1260    -0.0620 c3         1 Z13       0.720200
     13 H1           1.3590    -3.2080     1.1650 h1         1 Z13       0.054700
     14 H2           1.1840    -3.1810    -0.5920 h1         1 Z13       0.054700
     15 H5          -0.8170    -2.5390    -1.2160 h4         1 Z13      -0.028200
     16 H8           2.7100    -1.4890     2.3330 ha         1 Z13       0.139000
     17 H9           2.3900    -1.5280    -1.9330 ha         1 Z13       0.139000
     18 H10          4.2770     0.0150    -2.1000 ha         1 Z13       0.149000
     19 H11          4.5970     0.0560     2.1890 ha         1 Z13       0.149000
     20 C3          -2.1540    -1.1330    -0.2280 ca         1 Z13      -0.121900
     21 C9          -3.1580    -1.3520    -1.1660 ca         1 Z13      -0.104500
     22 C10         -4.3660    -0.6770    -1.0810 ca         1 Z13      -0.086500
     23 C11         -4.5740     0.2330    -0.0540 ca         1 Z13      -0.184300
     24 C12         -3.5730     0.4620     0.8890 ca         1 Z13      -0.086500
     25 C13         -2.3730    -0.2160     0.8000 ca         1 Z13      -0.104500
     26 C14         -5.8950     0.9220     0.0830 c3         1 Z13       0.720200
     27 H3          -3.0010    -2.0610    -1.9700 ha         1 Z13       0.149000
     28 H4          -5.1310    -0.8710    -1.8210 ha         1 Z13       0.150500
     29 H6          -3.7200     1.1700     1.6940 ha         1 Z13       0.150500
     30 H7          -1.5970    -0.0350     1.5320 ha         1 Z13       0.149000
     31 F6          -6.7220     0.2350     0.8870 f          1 Z13      -0.233967
     32 F5          -5.7770     2.1460     0.6100 f          1 Z13      -0.233967
     33 F1          -6.5230     1.0580    -1.0890 f          1 Z13      -0.233967
     34 C1           1.2340    -2.5480     0.3030 c3         1 Z13       0.147100
@<TRIPOS>BOND
     1     1    12 1   
     2     2    12 1   
     3     3    12 1   
     4     4     5 2   
     5     4    34 1   
     6     5    15 1   
     7     5    20 1   
     8     6     7 ar  
     9     6    10 ar  
    10     6    16 1   
    11     7     8 ar  
    12     7    34 1   
    13     8     9 ar  
    14     8    17 1   
    15     9    11 ar  
    16     9    18 1   
    17    10    11 ar  
    18    10    19 1   
    19    11    12 1   
    20    13    34 1   
    21    14    34 1   
    22    20    21 ar  
    23    20    25 ar  
    24    21    22 ar  
    25    21    27 1   
    26    22    23 ar  
    27    22    28 1   
    28    23    24 ar  
    29    23    26 1   
    30    24    25 ar  
    31    24    29 1   
    32    25    30 1   
    33    26    31 1   
    34    26    32 1   
    35    26    33 1   
@<TRIPOS>SUBSTRUCTURE
     1 Z13         1 TEMP              0 ****  ****    0 ROOT
