@<TRIPOS>MOLECULE
Z14
   50    52     1     0     0
SMALL
No Charge or Current Charge


@<TRIPOS>ATOM
      1 N01          1.8910    -0.1530    -0.1450 nu         1 Z14      -0.949200
      2 N02          0.9140    -4.2920     0.1390 nt         1 Z14      -0.591000
      3 N03          5.9560     1.3920    -0.9020 nb         1 Z14      -0.244500
      4 N04          6.0980     0.2780     1.2280 nb         1 Z14      -0.244500
      5 N05         -2.7520     1.0650    -0.1150 nh         1 Z14      -0.784400
      6 N06         -6.1350     3.6940    -0.0580 n8         1 Z14      -0.989200
      7 N07          7.9650     0.7350    -0.0190 nv         1 Z14      -1.052900
      8 C09         -1.1310    -2.2800     0.0650 ca         1 Z14       0.056000
      9 C10          0.2390    -1.9320     0.0000 ca         1 Z14      -0.299600
     10 C11          0.5710    -0.5620    -0.0790 ca         1 Z14       0.462000
     11 C12         -0.4250     0.4150    -0.1080 ca         1 Z14      -0.326000
     12 C13         -1.7710     0.0630    -0.0420 ca         1 Z14       0.452000
     13 C14         -2.1200    -1.2830     0.0520 ca         1 Z14      -0.315200
     14 C16          2.4600     1.0220     0.4980 c3         1 Z14       0.299100
     15 C17          3.9590     0.9400     0.3560 ca         1 Z14      -0.303300
     16 C18          4.6160     1.4590    -0.7740 ca         1 Z14       0.177900
     17 C19          6.6160     0.8050     0.1080 ca         1 Z14       0.386900
     18 C20          4.7580     0.3480     1.3520 ca         1 Z14       0.177900
     19 C21         -2.6550     2.2650     0.7560 c6         1 Z14       0.213800
     20 C22         -4.0580     2.8590     1.0190 c6         1 Z14      -0.100400
     21 C23         -3.4250     1.3180    -1.4140 c6         1 Z14       0.213800
     22 C24         -4.8420     1.8950    -1.1900 c6         1 Z14      -0.100400
     23 C25         -4.7800     3.1660    -0.3120 c6         1 Z14       0.158500
     24 O26          2.4960    -2.7780    -0.0790 o          1 Z14      -0.646100
     25 O27         -3.9390    -2.5020    -0.6740 o          1 Z14      -0.418500
     26 O28         -4.1340    -1.3850     1.1870 o          1 Z14      -0.418500
     27 HN01         2.5200    -0.9650    -0.1780 hn         1 Z14       0.542000
     28 HN02        -0.0590    -4.5320     0.2250 hn         1 Z14       0.317500
     29 HN0A         1.6210    -5.0120     0.1480 hn         1 Z14       0.317500
     30 HN06        -6.6070     3.8400    -0.9580 hn         1 Z14       0.395000
     31 HN0B        -6.6950     2.9590     0.3880 hn         1 Z14       0.395000
     32 HN07         8.3750     0.9150    -0.9330 hn         1 Z14       0.499500
     33 HN0C         8.4820     0.1140     0.5990 hn         1 Z14       0.499500
     34 H09         -1.4470    -3.3190     0.1330 ha         1 Z14       0.141000
     35 H12         -0.1570     1.4590    -0.2050 ha         1 Z14       0.124000
     36 H16          2.0880     1.9440     0.0300 h1         1 Z14       0.049700
     37 H16A         2.1880     1.0440     1.5630 h1         1 Z14       0.049700
     38 H18          4.0670     1.9340    -1.5860 h4         1 Z14       0.024600
     39 H20          4.3240    -0.0760     2.2560 h4         1 Z14       0.024600
     40 H21         -2.1940     2.0010     1.7190 h1         1 Z14       0.040700
     41 H21A        -2.0190     3.0270     0.2810 h1         1 Z14       0.040700
     42 H22         -4.6450     2.1470     1.6150 hc         1 Z14       0.060450
     43 H22A        -3.9620     3.7730     1.6200 hc         1 Z14       0.060450
     44 H23         -2.8310     2.0250    -2.0120 h1         1 Z14       0.040700
     45 H23A        -3.5070     0.3860    -1.9930 h1         1 Z14       0.040700
     46 H24         -5.3010     2.1220    -2.1610 hc         1 Z14       0.060450
     47 H24A        -5.4700     1.1310    -0.7110 hc         1 Z14       0.060450
     48 H25         -4.2150     3.9430    -0.8510 h1         1 Z14       0.053700
     49 C15          1.3010    -3.0070     0.0170 c          1 Z14       0.637700
     50 N08         -3.5350    -1.6660     0.1420 no         1 Z14       0.709200
@<TRIPOS>BOND
     1     1    10 1   
     2     1    14 1   
     3     1    27 1   
     4     2    28 1   
     5     2    29 1   
     6     2    49 1   
     7     3    16 ar  
     8     3    17 ar  
     9     4    17 ar  
    10     4    18 ar  
    11     5    12 1   
    12     5    19 1   
    13     5    21 1   
    14     6    23 1   
    15     6    30 1   
    16     6    31 1   
    17     7    17 1   
    18     7    32 1   
    19     7    33 1   
    20     8     9 ar  
    21     8    13 ar  
    22     8    34 1   
    23     9    10 ar  
    24     9    49 1   
    25    10    11 ar  
    26    11    12 ar  
    27    11    35 1   
    28    12    13 ar  
    29    13    50 1   
    30    14    15 1   
    31    14    36 1   
    32    14    37 1   
    33    15    16 ar  
    34    15    18 ar  
    35    16    38 1   
    36    18    39 1   
    37    19    20 1   
    38    19    40 1   
    39    19    41 1   
    40    20    23 1   
    41    20    42 1   
    42    20    43 1   
    43    21    22 1   
    44    21    44 1   
    45    21    45 1   
    46    22    23 1   
    47    22    46 1   
    48    22    47 1   
    49    23    48 1   
    50    24    49 2   
    51    25    50 1   
    52    26    50 1   
@<TRIPOS>SUBSTRUCTURE
     1 Z14         1 TEMP              0 ****  ****    0 ROOT
