@<TRIPOS>MOLECULE
Z14
   50    52     1     0     0
SMALL
bcc


@<TRIPOS>ATOM
      1 N01          1.8550    -0.3430     0.0980 nu         1 Z14      -0.755600
      2 N02          0.8050    -4.2930    -0.8630 nt         1 Z14      -0.658000
      3 N03          5.9230     1.0420    -0.7630 nb         1 Z14      -0.770500
      4 N04          5.8440     0.9570     1.6110 nb         1 Z14      -0.770500
      5 N05         -2.7450     0.9690     0.0030 nh         1 Z14      -0.646000
      6 N06         -5.7620     3.9720     0.1270 n8         1 Z14      -0.878800
      7 N07          7.8430     0.9810     0.4880 nv         1 Z14      -0.942500
      8 C09         -1.1530    -2.3730    -0.1540 ca         1 Z14       0.038000
      9 C10          0.1920    -2.0690    -0.1640 ca         1 Z14      -0.299600
     10 C11          0.5680    -0.7030     0.0210 ca         1 Z14       0.323600
     11 C12         -0.4460     0.2710     0.0580 ca         1 Z14      -0.344000
     12 C13         -1.8020    -0.0290     0.0210 ca         1 Z14       0.313600
     13 C14         -2.1470    -1.4120    -0.0220 ca         1 Z14      -0.315200
     14 C16          2.3220     1.0130     0.3020 c3         1 Z14       0.299100
     15 C17          3.8170     1.0310     0.3570 ca         1 Z14      -0.433900
     16 C18          4.6040     1.0630    -0.7870 ca         1 Z14       0.506200
     17 C19          6.4990     0.9830     0.4440 ca         1 Z14       0.912900
     18 C20          4.5260     0.9780     1.5490 ca         1 Z14       0.506200
     19 C21         -2.3550     2.3100     0.4060 c6         1 Z14       0.213800
     20 C22         -3.5770     3.1270     0.8020 c6         1 Z14      -0.100400
     21 C23         -3.7100     0.9790    -1.0960 c6         1 Z14       0.213800
     22 C24         -4.9650     1.7430    -0.7200 c6         1 Z14      -0.100400
     23 C25         -4.6250     3.1720    -0.3000 c6         1 Z14       0.158500
     24 O26          2.3760    -2.9830     0.0610 o          1 Z14      -0.646100
     25 O27         -3.7510    -3.0220    -0.1710 o          1 Z14      -0.228500
     26 O28         -4.2600    -1.2090     0.8250 o          1 Z14      -0.228500
     27 HN01         2.5250    -1.1000     0.1350 hn         1 Z14       0.486800
     28 HN02        -0.0600    -4.3790    -1.3670 hn         1 Z14       0.317500
     29 HN0A         1.4820    -5.0240    -1.0070 hn         1 Z14       0.317500
     30 HN06        -6.4470     4.0100    -0.6190 hn         1 Z14       0.339800
     31 HN0B        -6.2280     3.5090     0.9000 hn         1 Z14       0.339800
     32 HN07         8.3570     0.8120    -0.3600 hn         1 Z14       0.444300
     33 HN0C         8.3010     0.7550     1.3540 hn         1 Z14       0.444300
     34 H09         -1.4610    -3.4090    -0.1870 ha         1 Z14       0.159000
     35 H12         -0.1500     1.3080     0.0620 ha         1 Z14       0.142000
     36 H16          1.9750     1.6560    -0.5130 h1         1 Z14       0.049700
     37 H16A         1.9110     1.4280     1.2280 h1         1 Z14       0.049700
     38 H18          4.1400     1.1140    -1.7690 h4         1 Z14       0.024600
     39 H20          3.9970     0.9560     2.4980 h4         1 Z14       0.024600
     40 H21         -1.6860     2.2450     1.2630 h1         1 Z14       0.040700
     41 H21A        -1.8070     2.8280    -0.3960 h1         1 Z14       0.040700
     42 H22         -4.0180     2.6920     1.7050 hc         1 Z14       0.060450
     43 H22A        -3.2530     4.1380     1.0560 hc         1 Z14       0.060450
     44 H23         -3.2420     1.4580    -1.9700 h1         1 Z14       0.040700
     45 H23A        -3.9570    -0.0310    -1.4100 h1         1 Z14       0.040700
     46 H24         -5.6450     1.7520    -1.5760 hc         1 Z14       0.060450
     47 H24A        -5.4750     1.2300     0.1010 hc         1 Z14       0.060450
     48 H25         -4.1810     3.6790    -1.1670 h1         1 Z14       0.053700
     49 C15          1.2110    -3.1380    -0.3100 c          1 Z14       0.704700
     50 N08         -3.4730    -1.9020     0.2150 no         1 Z14       0.329200
@<TRIPOS>BOND
     1     1    10 1   
     2     1    14 1   
     3     1    27 1   
     4     2    28 1   
     5     2    29 1   
     6     2    49 1   
     7     3    16 ar  
     8     3    17 ar  
     9     4    17 ar  
    10     4    18 ar  
    11     5    12 1   
    12     5    19 1   
    13     5    21 1   
    14     6    23 1   
    15     6    30 1   
    16     6    31 1   
    17     7    17 1   
    18     7    32 1   
    19     7    33 1   
    20     8     9 ar  
    21     8    13 ar  
    22     8    34 1   
    23     9    10 ar  
    24     9    49 1   
    25    10    11 ar  
    26    11    12 ar  
    27    11    35 1   
    28    12    13 ar  
    29    13    50 1   
    30    14    15 1   
    31    14    36 1   
    32    14    37 1   
    33    15    16 ar  
    34    15    18 ar  
    35    16    38 1   
    36    18    39 1   
    37    19    20 1   
    38    19    40 1   
    39    19    41 1   
    40    20    23 1   
    41    20    42 1   
    42    20    43 1   
    43    21    22 1   
    44    21    44 1   
    45    21    45 1   
    46    22    23 1   
    47    22    46 1   
    48    22    47 1   
    49    23    48 1   
    50    24    49 2   
    51    25    50 1   
    52    26    50 1   
@<TRIPOS>SUBSTRUCTURE
     1 Z14         1 TEMP              0 ****  ****    0 ROOT
