@<TRIPOS>MOLECULE
Z15
   35    36     1     0     0
SMALL
bcc


@<TRIPOS>ATOM
      1 C1           1.6010    -1.0650    -0.8350 ca         1 Z15       0.129100
      2 O1           1.1610    -2.0950    -1.5980 oh         1 Z15      -0.520100
      3 C2           0.7270    -0.1640    -0.2130 ca         1 Z15      -0.110300
      4 C3           1.2510     0.8570     0.5680 ca         1 Z15      -0.103000
      5 C4           2.6220     1.0320     0.7230 ca         1 Z15       0.119100
      6 O4           3.0500     2.0490     1.4940 oh         1 Z15      -0.491100
      7 C5           3.4690     0.1490     0.0630 ca         1 Z15      -0.037600
      8 CL5          5.1860     0.3510     0.2210 cl         1 Z15      -0.116400
      9 C6           2.9710    -0.8940    -0.6990 ca         1 Z15      -0.120000
     10 C7          -0.7650    -0.2930    -0.4030 c6         1 Z15       0.197400
     11 C8          -1.3770    -1.3660     0.5050 c6         1 Z15       0.121100
     12 O2          -0.7740    -2.5990     0.1810 oh         1 Z15      -0.623800
     13 C9          -2.8800    -1.4070     0.2890 c6         1 Z15       0.077100
     14 O3          -3.4140    -2.3570     1.1850 oh         1 Z15      -0.605800
     15 C10         -3.4860    -0.0200     0.4950 c6         1 Z15       0.088100
     16 O7          -4.8510    -0.0120     0.1470 oh         1 Z15      -0.595800
     17 C11         -2.7540     0.9910    -0.3910 c6         1 Z15       0.147100
     18 O5          -1.3670     0.9420    -0.1230 os         1 Z15      -0.383600
     19 C12         -3.2190     2.4070    -0.1310 c3         1 Z15       0.149400
     20 O6          -2.5740     3.2730    -1.0330 oh         1 Z15      -0.583800
     21 HO1          0.3960    -2.5030    -1.1490 ho         1 Z15       0.454000
     22 H3           0.5900     1.5560     1.0620 ha         1 Z15       0.164000
     23 HO4          4.0130     2.0590     1.5500 ho         1 Z15       0.436000
     24 H6           3.6480    -1.5830    -1.1870 ha         1 Z15       0.161000
     25 H1          -0.9630    -0.5790    -1.4500 h1         1 Z15       0.060700
     26 H2          -1.1630    -1.0960     1.5500 h1         1 Z15       0.067700
     27 HO2         -1.2160    -3.3120     0.6570 ho         1 Z15       0.438000
     28 H7          -3.0660    -1.7080    -0.7530 h1         1 Z15       0.056700
     29 HO3         -4.2290    -2.7110     0.8170 ho         1 Z15       0.416000
     30 H4          -3.3450     0.2760     1.5450 h1         1 Z15       0.057700
     31 H8          -5.3640    -0.3100     0.9030 ho         1 Z15       0.413000
     32 H5          -2.9390     0.7350    -1.4480 h1         1 Z15       0.065700
     33 H9          -4.3070     2.4380    -0.2470 h1         1 Z15       0.033200
     34 H6'A        -2.9980     2.6660     0.9140 h1         1 Z15       0.033200
     35 HO6         -2.9080     4.1620    -0.8800 ho         1 Z15       0.406000
@<TRIPOS>BOND
     1     1     2 1   
     2     1     3 ar  
     3     1     9 ar  
     4     2    21 1   
     5     3     4 ar  
     6     3    10 1   
     7     4     5 ar  
     8     4    22 1   
     9     5     6 1   
    10     5     7 ar  
    11     6    23 1   
    12     7     8 1   
    13     7     9 ar  
    14     9    24 1   
    15    10    11 1   
    16    10    18 1   
    17    10    25 1   
    18    11    12 1   
    19    11    13 1   
    20    11    26 1   
    21    12    27 1   
    22    13    14 1   
    23    13    15 1   
    24    13    28 1   
    25    14    29 1   
    26    15    16 1   
    27    15    17 1   
    28    15    30 1   
    29    16    31 1   
    30    17    18 1   
    31    17    19 1   
    32    17    32 1   
    33    19    20 1   
    34    19    33 1   
    35    19    34 1   
    36    20    35 1   
@<TRIPOS>SUBSTRUCTURE
     1 Z15         1 TEMP              0 ****  ****    0 ROOT
