@<TRIPOS>MOLECULE
Z15
   35    36     1     0     0
SMALL
No Charge or Current Charge


@<TRIPOS>ATOM
      1 C1           1.7220    -1.0940    -0.7630 ca         1 Z15       0.129100
      2 O1           1.2810    -2.2050    -1.4170 oh         1 Z15      -0.559100
      3 C2           0.8040    -0.1690    -0.2090 ca         1 Z15      -0.110300
      4 C3           1.3160     0.9370     0.5150 ca         1 Z15      -0.085000
      5 C4           2.7010     1.1220     0.6660 ca         1 Z15       0.119100
      6 O4           3.1630     2.2010     1.3680 oh         1 Z15      -0.530100
      7 C5           3.5980     0.2020     0.0890 ca         1 Z15       0.054000
      8 Cl5          5.3410     0.4150     0.2610 cl         1 Z15      -0.208000
      9 C6           3.1060    -0.9020    -0.6210 ca         1 Z15      -0.102000
     10 C7          -0.7210    -0.3390    -0.4280 c6         1 Z15       0.220600
     11 C8          -1.3500    -1.4980     0.4180 c6         1 Z15       0.144300
     12 O2          -0.8160    -2.7930     0.0760 oh         1 Z15      -0.746000
     13 C9          -2.8900    -1.5340     0.2000 c6         1 Z15       0.100300
     14 O3          -3.4910    -2.5550     1.0160 oh         1 Z15      -0.668000
     15 C10         -3.5270    -0.1480     0.5020 c6         1 Z15       0.111300
     16 O7          -4.9510    -0.2100     0.2570 oh         1 Z15      -0.718000
     17 C11         -2.8170     0.9280    -0.3820 c6         1 Z15       0.170300
     18 O5          -1.3890     0.9090    -0.1160 os         1 Z15      -0.430000
     19 C12         -3.3410     2.3790    -0.1160 c3         1 Z15       0.172600
     20 O6          -2.6490     3.3870    -0.8830 oh         1 Z15      -0.706000
     21 HO1          0.4520    -2.5030    -0.9450 ho         1 Z15       0.493000
     22 H3           0.6480     1.6670     0.9630 ha         1 Z15       0.146000
     23 HO4          4.1460     2.1670     1.3650 ho         1 Z15       0.475000
     24 H6           3.7980    -1.6200    -1.0530 ha         1 Z15       0.143000
     25 H1          -0.8900    -0.5490    -1.4940 h1         1 Z15       0.060700
     26 H2          -1.1550    -1.2810     1.4800 h1         1 Z15       0.067700
     27 HO2         -1.4790    -3.4300     0.4480 ho         1 Z15       0.537000
     28 H7          -3.0750    -1.7590    -0.8620 h1         1 Z15       0.056700
     29 HO3         -4.4540    -2.3480     1.0130 ho         1 Z15       0.455000
     30 H4          -3.3360     0.0970     1.5580 h1         1 Z15       0.057700
     31 H8          -5.3880     0.4410     0.8560 ho         1 Z15       0.512000
     32 H5          -2.9820     0.6970    -1.4450 h1         1 Z15       0.065700
     33 H9          -4.4130     2.4070    -0.3510 h1         1 Z15       0.033200
     34 H6'A        -3.2360     2.5880     0.9580 h1         1 Z15       0.033200
     35 HO6         -3.0020     4.2610    -0.5940 ho         1 Z15       0.505000
@<TRIPOS>BOND
     1     1     2 1   
     2     1     3 ar  
     3     1     9 ar  
     4     2    21 1   
     5     3     4 ar  
     6     3    10 1   
     7     4     5 ar  
     8     4    22 1   
     9     5     6 1   
    10     5     7 ar  
    11     6    23 1   
    12     7     8 1   
    13     7     9 ar  
    14     9    24 1   
    15    10    11 1   
    16    10    18 1   
    17    10    25 1   
    18    11    12 1   
    19    11    13 1   
    20    11    26 1   
    21    12    27 1   
    22    13    14 1   
    23    13    15 1   
    24    13    28 1   
    25    14    29 1   
    26    15    16 1   
    27    15    17 1   
    28    15    30 1   
    29    16    31 1   
    30    17    18 1   
    31    17    19 1   
    32    17    32 1   
    33    19    20 1   
    34    19    33 1   
    35    19    34 1   
    36    20    35 1   
@<TRIPOS>SUBSTRUCTURE
     1 Z15         1 TEMP              0 ****  ****    0 ROOT
