@<TRIPOS>MOLECULE
Z16
   35    36     1     0     0
SMALL
No Charge or Current Charge


@<TRIPOS>ATOM
      1 C1           2.0250    -0.5190    -0.2840 ca         1 Z16       0.130100
      2 O1           1.8670    -1.7430    -0.8760 oh         1 Z16      -0.546100
      3 C2           0.8870     0.2400     0.0850 ca         1 Z16      -0.107300
      4 C3           1.0860     1.4750     0.7520 ca         1 Z16      -0.086000
      5 C4           2.3790     1.9470     1.0270 ca         1 Z16       0.113100
      6 O4           2.5400     3.1410     1.6680 oh         1 Z16      -0.533100
      7 C5           3.4990     1.2000     0.6400 ca         1 Z16      -0.170000
      8 C6           3.3250    -0.0300    -0.0130 ca         1 Z16       0.117000
      9 Cl6          4.7570    -0.9580    -0.4650 cl         1 Z16      -0.185000
     10 C7          -0.5400    -0.2480    -0.2700 c6         1 Z16       0.218600
     11 C8          -1.0340    -1.4360     0.6250 c6         1 Z16       0.141300
     12 O2          -0.2230    -2.6190     0.4760 oh         1 Z16      -0.744000
     13 C9          -2.5000    -1.8000     0.2570 c6         1 Z16       0.097300
     14 O3          -2.9870    -2.8520     1.1100 oh         1 Z16      -0.667000
     15 C10         -3.4220    -0.5510     0.3450 c6         1 Z16       0.114300
     16 O7          -4.7670    -0.9190    -0.0360 oh         1 Z16      -0.717000
     17 C11         -2.8290     0.5700    -0.5690 c6         1 Z16       0.170300
     18 O5          -1.4670     0.8610    -0.1590 os         1 Z16      -0.429000
     19 C12         -3.6490     1.9020    -0.5100 c3         1 Z16       0.172600
     20 O6          -3.0760     2.9620    -1.3040 oh         1 Z16      -0.706000
     21 HO1          1.0680    -2.1650    -0.4490 ho         1 Z16       0.494000
     22 H3           0.2400     2.0840     1.0590 ha         1 Z16       0.146000
     23 HO4          3.5000     3.3150     1.7740 ho         1 Z16       0.465000
     24 H5           4.5040     1.5590     0.8460 ha         1 Z16       0.128000
     25 H1          -0.5380    -0.5750    -1.3200 h1         1 Z16       0.059700
     26 H2          -1.0130    -1.0970     1.6720 h1         1 Z16       0.069700
     27 HO2         -0.7900    -3.3450     0.8450 ho         1 Z16       0.537000
     28 H7          -2.5090    -2.1450    -0.7890 h1         1 Z16       0.056700
     29 HO3         -3.9640    -2.8480     0.9850 ho         1 Z16       0.455000
     30 H4          -3.4110    -0.1880     1.3850 h1         1 Z16       0.057700
     31 H8          -5.3900    -0.3290     0.4510 ho         1 Z16       0.513000
     32 H9          -2.8190     0.2230    -1.6130 h1         1 Z16       0.065700
     33 H6          -4.6710     1.6940    -0.8540 h1         1 Z16       0.034200
     34 H6'A        -3.7160     2.2150     0.5410 h1         1 Z16       0.034200
     35 HO6         -3.6220     3.7680    -1.1450 ho         1 Z16       0.505000
@<TRIPOS>BOND
     1     1     2 1   
     2     1     3 ar  
     3     1     8 ar  
     4     2    21 1   
     5     3     4 ar  
     6     3    10 1   
     7     4     5 ar  
     8     4    22 1   
     9     5     6 1   
    10     5     7 ar  
    11     6    23 1   
    12     7     8 ar  
    13     7    24 1   
    14     8     9 1   
    15    10    11 1   
    16    10    18 1   
    17    10    25 1   
    18    11    12 1   
    19    11    13 1   
    20    11    26 1   
    21    12    27 1   
    22    13    14 1   
    23    13    15 1   
    24    13    28 1   
    25    14    29 1   
    26    15    16 1   
    27    15    17 1   
    28    15    30 1   
    29    16    31 1   
    30    17    18 1   
    31    17    19 1   
    32    17    32 1   
    33    19    20 1   
    34    19    33 1   
    35    19    34 1   
    36    20    35 1   
@<TRIPOS>SUBSTRUCTURE
     1 Z16         1 TEMP              0 ****  ****    0 ROOT
