@<TRIPOS>MOLECULE
Z16
   35    36     1     0     0
SMALL
bcc


@<TRIPOS>ATOM
      1 C1           1.8940    -0.5400    -0.3280 ca         1 Z16       0.130100
      2 O1           1.7380    -1.6970    -1.0060 oh         1 Z16      -0.507100
      3 C2           0.8120     0.2400     0.1040 ca         1 Z16      -0.107300
      4 C3           1.0380     1.4170     0.8030 ca         1 Z16      -0.104000
      5 C4           2.3330     1.8580     1.0560 ca         1 Z16       0.113100
      6 O4           2.4810     3.0150     1.7360 oh         1 Z16      -0.494100
      7 C5           3.4140     1.1140     0.6030 ca         1 Z16      -0.188000
      8 C6           3.1780    -0.0730    -0.0740 ca         1 Z16       0.025400
      9 CL6          4.5250    -1.0080    -0.6220 cl         1 Z16      -0.093400
     10 C7          -0.5970    -0.2000    -0.2200 c6         1 Z16       0.195400
     11 C8          -1.1060    -1.2940     0.7250 c6         1 Z16       0.118100
     12 O2          -0.2360    -2.4000     0.6300 oh         1 Z16      -0.621800
     13 C9          -2.5230    -1.6660     0.3190 c6         1 Z16       0.074100
     14 O3          -2.9910    -2.6450     1.2210 oh         1 Z16      -0.604800
     15 C10         -3.4130    -0.4250     0.3120 c6         1 Z16       0.091100
     16 O7          -4.6880    -0.7210    -0.2080 oh         1 Z16      -0.594800
     17 C11         -2.7750     0.6550    -0.5640 c6         1 Z16       0.147100
     18 O5          -1.4530     0.9070    -0.1290 os         1 Z16      -0.382600
     19 C12         -3.5360     1.9610    -0.4910 c3         1 Z16       0.149400
     20 O6          -2.9620     2.8750    -1.3950 oh         1 Z16      -0.583800
     21 HO1          1.0150    -2.2030    -0.5870 ho         1 Z16       0.455000
     22 H3           0.2050     2.0170     1.1410 ha         1 Z16       0.164000
     23 HO4          3.4140     3.2400     1.8210 ho         1 Z16       0.426000
     24 H5           4.4310     1.4420     0.7790 ha         1 Z16       0.146000
     25 H1          -0.6120    -0.6010    -1.2480 h1         1 Z16       0.059700
     26 H2          -1.1050    -0.8940     1.7500 h1         1 Z16       0.069700
     27 HO2         -0.6370    -3.1650     1.0610 ho         1 Z16       0.438000
     28 H7          -2.4860    -2.0650    -0.7050 h1         1 Z16       0.056700
     29 HO3         -3.5790    -3.2450     0.7550 ho         1 Z16       0.416000
     30 H4          -3.4860    -0.0380     1.3400 h1         1 Z16       0.057700
     31 H8          -5.2100    -1.1410     0.4820 ho         1 Z16       0.414000
     32 H9          -2.7620     0.3010    -1.6080 h1         1 Z16       0.065700
     33 H6          -4.5850     1.7610    -0.7290 h1         1 Z16       0.034200
     34 H6'A        -3.5030     2.3320     0.5420 h1         1 Z16       0.034200
     35 HO6         -3.4910     3.6780    -1.3790 ho         1 Z16       0.406000
@<TRIPOS>BOND
     1     1     2 1   
     2     1     3 ar  
     3     1     8 ar  
     4     2    21 1   
     5     3     4 ar  
     6     3    10 1   
     7     4     5 ar  
     8     4    22 1   
     9     5     6 1   
    10     5     7 ar  
    11     6    23 1   
    12     7     8 ar  
    13     7    24 1   
    14     8     9 1   
    15    10    11 1   
    16    10    18 1   
    17    10    25 1   
    18    11    12 1   
    19    11    13 1   
    20    11    26 1   
    21    12    27 1   
    22    13    14 1   
    23    13    15 1   
    24    13    28 1   
    25    14    29 1   
    26    15    16 1   
    27    15    17 1   
    28    15    30 1   
    29    16    31 1   
    30    17    18 1   
    31    17    19 1   
    32    17    32 1   
    33    19    20 1   
    34    19    33 1   
    35    19    34 1   
    36    20    35 1   
@<TRIPOS>SUBSTRUCTURE
     1 Z16         1 TEMP              0 ****  ****    0 ROOT
