@<TRIPOS>MOLECULE
Z17
   32    33     1     0     0
SMALL
abcg2


@<TRIPOS>ATOM
      1 C1          -3.2680     0.6600     0.2800 c3         1 Z17      -0.203400
      2 C2          -4.7200     0.2250     0.5560 c          1 Z17       0.715000
      3 C3           0.1390    -1.1350     0.0830 c          1 Z17       0.488000
      4 N2           3.8450    -0.8230     0.2560 ns         1 Z17      -0.460400
      5 C5          -0.8810    -0.0790    -0.0960 cc         1 Z17       0.336300
      6 C6          -2.6830    -0.9920    -1.5310 c3         1 Z17      -0.072100
      7 O1          -0.1870    -2.3120     0.2100 o          1 Z17      -0.522100
      8 N3          -0.5820     1.1630    -0.2390 nd         1 Z17      -0.402400
      9 O2          -4.9190    -0.9590     0.8950 o          1 Z17      -0.739500
     10 C7           3.9740     0.5140     0.0790 cc         1 Z17       0.771800
     11 N4           2.9410     1.3050    -0.0850 nd         1 Z17      -0.778300
     12 O4          -5.5870     1.1180     0.4610 o          1 Z17      -0.739500
     13 C8           1.7300     0.7350    -0.0730 cd         1 Z17       0.447600
     14 C9           1.4830    -0.6340     0.0940 cc         1 Z17      -0.462400
     15 N5           0.6850     1.5730    -0.2370 na         1 Z17      -0.301500
     16 C10          2.6260    -1.4970     0.2800 c          1 Z17       0.611200
     17 C11         -2.3330    -0.4690    -0.1340 c3         1 Z17      -0.073000
     18 H1          -3.2630     1.4590    -0.4660 hc         1 Z17       0.026200
     19 H2          -2.8960     1.1210     1.2030 hc         1 Z17       0.026200
     20 H3           6.0230     0.4650     0.2030 hn         1 Z17       0.506000
     21 H4           5.3150     2.0180    -0.0430 hn         1 Z17       0.506000
     22 H5           4.6710    -1.3920     0.3890 hn         1 Z17       0.314500
     23 H6          -0.0940     3.4530    -0.5320 h1         1 Z17       0.051367
     24 H7           1.3780     3.4360     0.4580 h1         1 Z17       0.051367
     25 H8           1.4890     3.2080    -1.2930 h1         1 Z17       0.051367
     26 H9          -2.5880    -0.1970    -2.2740 hc         1 Z17       0.031367
     27 H10         -2.0380    -1.8160    -1.8350 hc         1 Z17       0.031367
     28 H11         -3.7110    -1.3530    -1.5500 hc         1 Z17       0.031367
     29 H14         -2.4680    -1.2920     0.5710 hc         1 Z17       0.102700
     30 N1           5.1980     1.0260     0.0750 nv         1 Z17      -1.065200
     31 C4           0.8860     3.0030    -0.4100 c3         1 Z17       0.240100
     32 O3           2.6210    -2.7000     0.4510 o          1 Z17      -0.519000
@<TRIPOS>BOND
     1     1     2 1   
     2     1    17 1   
     3     1    18 1   
     4     1    19 1   
     5     2     9 1   
     6     2    12 1   
     7     3     5 1   
     8     3     7 2   
     9     3    14 1   
    10     4    10 1   
    11     4    16 1   
    12     4    22 1   
    13     5     8 2   
    14     5    17 1   
    15     6    17 1   
    16     6    26 1   
    17     6    27 1   
    18     6    28 1   
    19     8    15 1   
    20    10    11 2   
    21    10    30 1   
    22    11    13 1   
    23    13    14 2   
    24    13    15 1   
    25    14    16 1   
    26    15    31 1   
    27    16    32 2   
    28    17    29 1   
    29    20    30 1   
    30    21    30 1   
    31    23    31 1   
    32    24    31 1   
    33    25    31 1   
@<TRIPOS>SUBSTRUCTURE
     1 Z17         1 TEMP              0 ****  ****    0 ROOT
