@<TRIPOS>MOLECULE
Z17
   32    33     1     0     0
SMALL
No Charge or Current Charge


@<TRIPOS>ATOM
      1 C1          -3.3160     0.5520     0.5220 c3         1 Z17      -0.203400
      2 C2          -4.7080    -0.0690     0.7470 c          1 Z17       0.715000
      3 C3           0.1470    -1.0300     0.0370 c          1 Z17       0.488000
      4 N2           3.8270    -0.9010     0.2630 ns         1 Z17      -0.460400
      5 C5          -0.8810     0.0290    -0.1710 cc         1 Z17       0.336300
      6 C6          -2.7810    -0.7630    -1.6460 c3         1 Z17      -0.072100
      7 O1          -0.1360    -2.2160     0.1820 o          1 Z17      -0.522100
      8 N3          -0.6300     1.3240    -0.3730 nd         1 Z17      -0.402400
      9 O2          -4.8700    -0.7650     1.7380 o          1 Z17      -0.739500
     10 C7           3.9960     0.3980     0.0690 cc         1 Z17       0.771800
     11 N4           3.0820     1.2900    -0.1340 nd         1 Z17      -0.778300
     12 O4          -5.5770     0.1330    -0.0870 o          1 Z17      -0.739500
     13 C8           1.7840     0.7980    -0.1420 cd         1 Z17       0.447600
     14 C9           1.5290    -0.5460     0.0550 cc         1 Z17      -0.462400
     15 N5           0.7160     1.7040    -0.3590 na         1 Z17      -0.301500
     16 C10          2.6270    -1.4900     0.2720 c          1 Z17       0.611200
     17 C11         -2.3400    -0.4400    -0.1960 c3         1 Z17      -0.073000
     18 H1          -3.3950     1.4420    -0.1140 hc         1 Z17       0.026200
     19 H2          -2.8510     0.7500     1.4960 hc         1 Z17       0.026200
     20 H3           5.8620     0.3650     0.7260 hn         1 Z17       0.506000
     21 H4           5.2860     1.8480     0.1160 hn         1 Z17       0.506000
     22 H5           4.6290    -1.4950     0.3810 hn         1 Z17       0.314500
     23 H6           0.0310     3.6880    -0.7400 h1         1 Z17       0.051367
     24 H7           1.4840     3.5730     0.2880 h1         1 Z17       0.051367
     25 H8           1.6050     3.2770    -1.4710 h1         1 Z17       0.051367
     26 H9          -2.8100     0.1480    -2.2570 hc         1 Z17       0.031367
     27 H10         -2.0800    -1.4640    -2.1140 hc         1 Z17       0.031367
     28 H11         -3.7740    -1.2250    -1.6670 hc         1 Z17       0.031367
     29 H14         -2.4160    -1.3770     0.3700 hc         1 Z17       0.102700
     30 N1           5.2340     0.8380     0.0890 nv         1 Z17      -1.065200
     31 C4           0.9730     3.1470    -0.5840 c3         1 Z17       0.240100
     32 O3           2.5380    -2.6920     0.4500 o          1 Z17      -0.519000
@<TRIPOS>BOND
     1     1     2 1   
     2     1    17 1   
     3     1    18 1   
     4     1    19 1   
     5     2     9 1   
     6     2    12 1   
     7     3     5 1   
     8     3     7 2   
     9     3    14 1   
    10     4    10 1   
    11     4    16 1   
    12     4    22 1   
    13     5     8 2   
    14     5    17 1   
    15     6    17 1   
    16     6    26 1   
    17     6    27 1   
    18     6    28 1   
    19     8    15 1   
    20    10    11 2   
    21    10    30 1   
    22    11    13 1   
    23    13    14 2   
    24    13    15 1   
    25    14    16 1   
    26    15    31 1   
    27    16    32 2   
    28    17    29 1   
    29    20    30 1   
    30    21    30 1   
    31    23    31 1   
    32    24    31 1   
    33    25    31 1   
@<TRIPOS>SUBSTRUCTURE
     1 Z17         1 TEMP              0 ****  ****    0 ROOT
