@<TRIPOS>MOLECULE
Z18
   62    62     1     0     0
SMALL
abcg2


@<TRIPOS>ATOM
      1 N            4.5130     0.0660     1.2340 n3         1 Z18      -0.697600
      2 C1          -2.9810    -0.5880     0.7570 ce         1 Z18      -0.304200
      3 O1          -0.8990     1.3350    -0.7760 os         1 Z18      -0.436100
      4 C2          -2.8210     0.6640     1.1800 c2         1 Z18      -0.138200
      5 O2          -0.4950     2.5300    -2.6200 o          1 Z18      -0.501000
      6 C3          -2.9760     1.8630     0.3010 c3         1 Z18      -0.043500
      7 O3           1.3350    -0.3250    -0.4080 os         1 Z18      -0.453100
      8 C4          -3.8220     2.9450     0.9710 c3         1 Z18      -0.085100
      9 O4           3.3930    -0.7120    -1.2100 o          1 Z18      -0.467000
     10 C5          -1.5980     2.4090    -0.1130 c3         1 Z18       0.178300
     11 O5          -2.7400    -1.7810     2.7830 o          1 Z18      -0.523100
     12 C6          -0.7260     2.9050     1.0310 c3         1 Z18      -0.086400
     13 C7           0.6080     3.4780     0.5730 c3         1 Z18      -0.092100
     14 C8          -0.3800     1.5140    -1.9760 c          1 Z18       0.602100
     15 C9           0.3950     0.3250    -2.5210 c3         1 Z18      -0.136700
     16 C10         -0.2400    -0.1180    -3.8430 c3         1 Z18      -0.085100
     17 C11          0.6700    -0.8450    -1.5680 c3         1 Z18       0.195300
     18 C12          2.6600    -0.3340    -0.3340 c          1 Z18       0.590100
     19 C13          3.1030     0.2290     0.9990 c3         1 Z18       0.104800
     20 C14          4.9920     0.9940     2.2380 c3         1 Z18       0.149100
     21 C15          4.8460    -1.2990     1.5910 c3         1 Z18       0.149100
     22 C16         -0.5520    -1.7030    -1.1530 c3         1 Z18      -0.053700
     23 C17         -0.6540    -2.9100    -2.0870 c3         1 Z18      -0.100100
     24 C18         -0.4930    -2.1870     0.3020 c3         1 Z18      -0.059400
     25 C19         -1.8120    -2.8190     0.8280 c3         1 Z18      -0.159700
     26 C20         -1.5450    -4.0460     1.6850 c3         1 Z18      -0.078100
     27 C21         -2.5690    -1.7440     1.5820 c          1 Z18       0.574300
     28 H1          -3.2780    -0.7820    -0.2680 ha         1 Z18       0.184000
     29 H2          -2.4840     0.8430     2.1990 ha         1 Z18       0.184000
     30 H3          -3.4800     1.5570    -0.6220 hc         1 Z18       0.061700
     31 H4          -3.4290     3.2210     1.9500 hc         1 Z18       0.041700
     32 H4A         -3.8650     3.8450     0.3570 hc         1 Z18       0.041700
     33 H4B         -4.8420     2.5900     1.1140 hc         1 Z18       0.041700
     34 H5          -1.7630     3.2260    -0.8200 h1         1 Z18       0.073700
     35 H6          -1.2810     3.6840     1.5600 hc         1 Z18       0.051200
     36 H6A         -0.5560     2.1020     1.7530 hc         1 Z18       0.051200
     37 H7           1.1600     3.8870     1.4190 hc         1 Z18       0.037700
     38 H7A          1.2400     2.7180     0.1140 hc         1 Z18       0.037700
     39 H7B          0.4710     4.2790    -0.1550 hc         1 Z18       0.037700
     40 H9           1.3750     0.7390    -2.7830 hc         1 Z18       0.089700
     41 H10         -0.2610     0.7120    -4.5460 hc         1 Z18       0.049033
     42 H10A         0.3500    -0.9150    -4.2950 hc         1 Z18       0.049033
     43 H10B        -1.2610    -0.4770    -3.7150 hc         1 Z18       0.049033
     44 H11          1.3720    -1.5010    -2.0920 h1         1 Z18       0.067700
     45 H13          2.4730    -0.2020     1.7950 h1         1 Z18       0.062200
     46 H13A         2.8620     1.2980     0.9780 h1         1 Z18       0.062200
     47 H14          4.5550     0.8280     3.2350 h1         1 Z18       0.035200
     48 H14A         6.0740     0.9040     2.3340 h1         1 Z18       0.035200
     49 H14B         4.7670     2.0190     1.9410 h1         1 Z18       0.035200
     50 H15          4.5560    -1.9900     0.8000 h1         1 Z18       0.035200
     51 H15A         5.9230    -1.3910     1.7280 h1         1 Z18       0.035200
     52 H15B         4.3580    -1.6260     2.5220 h1         1 Z18       0.035200
     53 H16         -1.4520    -1.0980    -1.2750 hc         1 Z18       0.064700
     54 H17          0.2220    -3.5530    -1.9780 hc         1 Z18       0.038367
     55 H17A        -1.5370    -3.5130    -1.8690 hc         1 Z18       0.038367
     56 H17B        -0.7250    -2.6220    -3.1350 hc         1 Z18       0.038367
     57 H18          0.3020    -2.9360     0.3920 hc         1 Z18       0.054700
     58 H18A        -0.2080    -1.3700     0.9660 hc         1 Z18       0.054700
     59 H19         -2.4340    -3.1150    -0.0250 hc         1 Z18       0.063700
     60 H20         -0.8920    -3.8130     2.5260 hc         1 Z18       0.041033
     61 H20A        -2.4660    -4.4740     2.0830 hc         1 Z18       0.041033
     62 H20B        -1.0520    -4.8130     1.0870 hc         1 Z18       0.041033
@<TRIPOS>BOND
     1     1    19 1   
     2     1    20 1   
     3     1    21 1   
     4     2     4 2   
     5     2    27 1   
     6     2    28 1   
     7     3    10 1   
     8     3    14 1   
     9     4     6 1   
    10     4    29 1   
    11     5    14 2   
    12     6     8 1   
    13     6    10 1   
    14     6    30 1   
    15     7    17 1   
    16     7    18 1   
    17     8    31 1   
    18     8    32 1   
    19     8    33 1   
    20     9    18 2   
    21    10    12 1   
    22    10    34 1   
    23    11    27 2   
    24    12    13 1   
    25    12    35 1   
    26    12    36 1   
    27    13    37 1   
    28    13    38 1   
    29    13    39 1   
    30    14    15 1   
    31    15    16 1   
    32    15    17 1   
    33    15    40 1   
    34    16    41 1   
    35    16    42 1   
    36    16    43 1   
    37    17    22 1   
    38    17    44 1   
    39    18    19 1   
    40    19    45 1   
    41    19    46 1   
    42    20    47 1   
    43    20    48 1   
    44    20    49 1   
    45    21    50 1   
    46    21    51 1   
    47    21    52 1   
    48    22    23 1   
    49    22    24 1   
    50    22    53 1   
    51    23    54 1   
    52    23    55 1   
    53    23    56 1   
    54    24    25 1   
    55    24    57 1   
    56    24    58 1   
    57    25    26 1   
    58    25    27 1   
    59    25    59 1   
    60    26    60 1   
    61    26    61 1   
    62    26    62 1   
@<TRIPOS>SUBSTRUCTURE
     1 Z18         1 TEMP              0 ****  ****    0 ROOT
