@<TRIPOS>MOLECULE
Z18
   62    62     1     0     0
SMALL
No Charge or Current Charge


@<TRIPOS>ATOM
      1 N            4.1340    -0.0650     1.4460 n3         1 Z18      -0.697600
      2 C1          -2.7670    -0.6790     0.9690 ce         1 Z18      -0.304200
      3 O1          -1.0670     1.2920    -1.0360 os         1 Z18      -0.436100
      4 C2          -2.6580     0.6260     1.3050 c2         1 Z18      -0.138200
      5 O2           0.1940     2.6840    -2.3570 o          1 Z18      -0.501000
      6 C3          -2.9320     1.8000     0.3800 c3         1 Z18      -0.043500
      7 O3           1.5040    -0.2280    -0.6250 os         1 Z18      -0.453100
      8 C4          -3.7960     2.8760     1.0790 c3         1 Z18      -0.085100
      9 O4           3.4480     0.1420    -1.7990 o          1 Z18      -0.467000
     10 C5          -1.5940     2.3570    -0.2090 c3         1 Z18       0.178300
     11 O5          -1.9560    -1.6390     2.9740 o          1 Z18      -0.523100
     12 C6          -0.5480     2.7210     0.9010 c3         1 Z18      -0.086400
     13 C7           0.6410     3.6100     0.4790 c3         1 Z18      -0.092100
     14 C8          -0.1660     1.5600    -2.0340 c          1 Z18       0.602100
     15 C9           0.3730     0.2910    -2.7260 c3         1 Z18      -0.136700
     16 C10         -0.5930    -0.1500    -3.8550 c3         1 Z18      -0.085100
     17 C11          0.8310    -0.8480    -1.7390 c3         1 Z18       0.195300
     18 C12          2.7870     0.2410    -0.7720 c          1 Z18       0.590100
     19 C13          3.3290     0.8370     0.5560 c3         1 Z18       0.104800
     20 C14          4.7240     0.6580     2.5950 c3         1 Z18       0.149100
     21 C15          3.3940    -1.2780     1.8650 c3         1 Z18       0.149100
     22 C16         -0.3040    -1.8040    -1.1940 c3         1 Z18      -0.053700
     23 C17         -0.4880    -3.0310    -2.1390 c3         1 Z18      -0.100100
     24 C18         -0.1310    -2.3150     0.2830 c3         1 Z18      -0.059400
     25 C19         -1.4390    -2.8760     0.9450 c3         1 Z18      -0.159700
     26 C20         -1.1800    -4.1570     1.7780 c3         1 Z18      -0.078100
     27 C21         -2.1330    -1.7650     1.7680 c          1 Z18       0.574300
     28 H1          -3.1000    -0.9530    -0.0300 ha         1 Z18       0.184000
     29 H2          -2.2330     0.9070     2.2720 ha         1 Z18       0.184000
     30 H3          -3.5250     1.4440    -0.4720 hc         1 Z18       0.061700
     31 H4          -3.3190     3.2510     1.9910 hc         1 Z18       0.041700
     32 H4A         -3.9750     3.7250     0.4080 hc         1 Z18       0.041700
     33 H4B         -4.7700     2.4560     1.3590 hc         1 Z18       0.041700
     34 H5          -1.8290     3.2460    -0.8110 h1         1 Z18       0.073700
     35 H6          -1.0630     3.2500     1.7100 hc         1 Z18       0.051200
     36 H6A         -0.1510     1.8000     1.3440 hc         1 Z18       0.051200
     37 H7           1.1740     3.9700     1.3680 hc         1 Z18       0.037700
     38 H7A          1.3610     3.0540    -0.1280 hc         1 Z18       0.037700
     39 H7B          0.2950     4.4840    -0.0860 hc         1 Z18       0.037700
     40 H9           1.2720     0.6250    -3.2570 hc         1 Z18       0.089700
     41 H10         -0.7930     0.6900    -4.5320 hc         1 Z18       0.049033
     42 H10A        -0.1520    -0.9530    -4.4560 hc         1 Z18       0.049033
     43 H10B        -1.5570    -0.4860    -3.4550 hc         1 Z18       0.049033
     44 H11          1.5430    -1.4930    -2.2740 h1         1 Z18       0.067700
     45 H13          2.4600     1.2190     1.1080 h1         1 Z18       0.062200
     46 H13A         3.9270     1.7120     0.2710 h1         1 Z18       0.062200
     47 H14          3.9400     1.0470     3.2580 h1         1 Z18       0.035200
     48 H14A         5.3720    -0.0070     3.1810 h1         1 Z18       0.035200
     49 H14B         5.3340     1.5040     2.2500 h1         1 Z18       0.035200
     50 H15          3.0710    -1.8630     0.9930 h1         1 Z18       0.035200
     51 H15A         4.0280    -1.9260     2.4840 h1         1 Z18       0.035200
     52 H15B         2.5020    -1.0110     2.4490 h1         1 Z18       0.035200
     53 H16         -1.2360    -1.2350    -1.2300 hc         1 Z18       0.064700
     54 H17          0.4150    -3.6540    -2.1380 hc         1 Z18       0.038367
     55 H17A        -1.3260    -3.6640    -1.8320 hc         1 Z18       0.038367
     56 H17B        -0.6830    -2.7350    -3.1730 hc         1 Z18       0.038367
     57 H18          0.6540    -3.0820     0.2920 hc         1 Z18       0.054700
     58 H18A         0.2380    -1.5140     0.9350 hc         1 Z18       0.054700
     59 H19         -2.1270    -3.1180     0.1300 hc         1 Z18       0.063700
     60 H20         -0.4670    -3.9620     2.5880 hc         1 Z18       0.041033
     61 H20A        -2.1140    -4.5250     2.2220 hc         1 Z18       0.041033
     62 H20B        -0.7700    -4.9530     1.1450 hc         1 Z18       0.041033
@<TRIPOS>BOND
     1     1    19 1   
     2     1    20 1   
     3     1    21 1   
     4     2     4 2   
     5     2    27 1   
     6     2    28 1   
     7     3    10 1   
     8     3    14 1   
     9     4     6 1   
    10     4    29 1   
    11     5    14 2   
    12     6     8 1   
    13     6    10 1   
    14     6    30 1   
    15     7    17 1   
    16     7    18 1   
    17     8    31 1   
    18     8    32 1   
    19     8    33 1   
    20     9    18 2   
    21    10    12 1   
    22    10    34 1   
    23    11    27 2   
    24    12    13 1   
    25    12    35 1   
    26    12    36 1   
    27    13    37 1   
    28    13    38 1   
    29    13    39 1   
    30    14    15 1   
    31    15    16 1   
    32    15    17 1   
    33    15    40 1   
    34    16    41 1   
    35    16    42 1   
    36    16    43 1   
    37    17    22 1   
    38    17    44 1   
    39    18    19 1   
    40    19    45 1   
    41    19    46 1   
    42    20    47 1   
    43    20    48 1   
    44    20    49 1   
    45    21    50 1   
    46    21    51 1   
    47    21    52 1   
    48    22    23 1   
    49    22    24 1   
    50    22    53 1   
    51    23    54 1   
    52    23    55 1   
    53    23    56 1   
    54    24    25 1   
    55    24    57 1   
    56    24    58 1   
    57    25    26 1   
    58    25    27 1   
    59    25    59 1   
    60    26    60 1   
    61    26    61 1   
    62    26    62 1   
@<TRIPOS>SUBSTRUCTURE
     1 Z18         1 TEMP              0 ****  ****    0 ROOT
