@<TRIPOS>MOLECULE
Z19
   21    22     1     0     0
SMALL
abcg2


@<TRIPOS>ATOM
      1 N1           0.5200    -1.5740    -0.1120 nc         1 Z19      -0.522100
      2 N2          -0.7560    -1.9140    -0.1010 na         1 Z19      -0.044400
      3 C3          -1.5790    -0.8370    -0.0360 ca         1 Z19      -0.052200
      4 C4          -0.7390     0.2890    -0.0030 ca         1 Z19      -0.185900
      5 C5           0.5730    -0.2620    -0.0540 cd         1 Z19       0.294900
      6 C6           1.8550     0.4780    -0.0470 c          1 Z19       0.575800
      7 N7           2.9490    -0.3000    -0.1130 ns         1 Z19      -0.401300
      8 N8           4.2160     0.2520    -0.1170 n8         1 Z19      -0.718200
      9 O9           1.8660     1.6970     0.0150 o          1 Z19      -0.564100
     10 C10         -2.9740    -0.7400    -0.0030 ca         1 Z19      -0.134000
     11 C11         -3.5010     0.5290     0.0650 ca         1 Z19      -0.069000
     12 C12         -2.6760     1.6730     0.1000 ca         1 Z19      -0.148000
     13 C13         -1.3050     1.5720     0.0670 ca         1 Z19      -0.020000
     14 HN2         -1.0140    -2.8880    -0.1380 hn         1 Z19       0.379000
     15 HN7          2.8370    -1.3030    -0.1620 hn         1 Z19       0.318500
     16 HN8          4.7390    -0.1180     0.6660 hn         1 Z19       0.397500
     17 HN8A         4.6960    -0.0300    -0.9620 hn         1 Z19       0.397500
     18 H10         -3.6070    -1.6170    -0.0290 ha         1 Z19       0.120000
     19 H11         -4.5750     0.6540     0.0920 ha         1 Z19       0.114000
     20 H12         -3.1390     2.6500     0.1540 ha         1 Z19       0.118000
     21 H13         -0.6790     2.4520     0.0940 ha         1 Z19       0.145000
@<TRIPOS>BOND
     1     1     2 1   
     2     1     5 2   
     3     2     3 1   
     4     2    14 1   
     5     3     4 ar  
     6     3    10 ar  
     7     4     5 1   
     8     4    13 ar  
     9     5     6 1   
    10     6     7 1   
    11     6     9 2   
    12     7     8 1   
    13     7    15 1   
    14     8    16 1   
    15     8    17 1   
    16    10    11 ar  
    17    10    18 1   
    18    11    12 ar  
    19    11    19 1   
    20    12    13 ar  
    21    12    20 1   
    22    13    21 1   
@<TRIPOS>SUBSTRUCTURE
     1 Z19         1 TEMP              0 ****  ****    0 ROOT
