@<TRIPOS>MOLECULE
Z19
   21    22     1     0     0
SMALL
No Charge or Current Charge


@<TRIPOS>ATOM
      1 N1           0.5310    -1.6520    -0.1210 nc         1 Z19      -0.522100
      2 N2          -0.8330    -1.9950    -0.1060 na         1 Z19      -0.044400
      3 C3          -1.6130    -0.8570    -0.0370 ca         1 Z19      -0.052200
      4 C4          -0.7960     0.2290    -0.0050 ca         1 Z19      -0.185900
      5 C5           0.5590    -0.2980    -0.0600 cd         1 Z19       0.294900
      6 C6           1.8260     0.5300    -0.0500 c          1 Z19       0.575800
      7 N7           2.9940    -0.2470    -0.1110 ns         1 Z19      -0.401300
      8 N8           4.3610     0.2760    -0.1180 n8         1 Z19      -0.718200
      9 O9           1.8670     1.7570     0.0050 o          1 Z19      -0.564100
     10 C10         -3.0090    -0.7380    -0.0010 ca         1 Z19      -0.134000
     11 C11         -3.5560     0.5610     0.0710 ca         1 Z19      -0.069000
     12 C12         -2.7060     1.6930     0.1040 ca         1 Z19      -0.148000
     13 C13         -1.3030     1.5380     0.0660 ca         1 Z19      -0.020000
     14 HN2         -1.1590    -2.9600    -0.1430 hn         1 Z19       0.379000
     15 HN7          2.8390    -1.2580    -0.1540 hn         1 Z19       0.318500
     16 HN8          4.9060    -0.0830     0.6810 hn         1 Z19       0.397500
     17 HN8A         4.8690    -0.0080    -0.9690 hn         1 Z19       0.397500
     18 H10         -3.6510    -1.6150    -0.0260 ha         1 Z19       0.120000
     19 H11         -4.6360     0.6930     0.1010 ha         1 Z19       0.114000
     20 H12         -3.1360     2.6910     0.1590 ha         1 Z19       0.118000
     21 H13         -0.6480     2.4060     0.0910 ha         1 Z19       0.145000
@<TRIPOS>BOND
     1     1     2 1   
     2     1     5 2   
     3     2     3 1   
     4     2    14 1   
     5     3     4 ar  
     6     3    10 ar  
     7     4     5 1   
     8     4    13 ar  
     9     5     6 1   
    10     6     7 1   
    11     6     9 2   
    12     7     8 1   
    13     7    15 1   
    14     8    16 1   
    15     8    17 1   
    16    10    11 ar  
    17    10    18 1   
    18    11    12 ar  
    19    11    19 1   
    20    12    13 ar  
    21    12    20 1   
    22    13    21 1   
@<TRIPOS>SUBSTRUCTURE
     1 Z19         1 TEMP              0 ****  ****    0 ROOT
