@<TRIPOS>MOLECULE
Z1E
   96   100     1     0     0
SMALL
No Charge or Current Charge


@<TRIPOS>ATOM
      1 C2          -3.2900    -2.9980     1.6960 cx         1 Z1E      -0.037600
      2 C3          -3.0280    -4.4980     1.7240 cx         1 Z1E      -0.156700
      3 C4          -3.7260    -3.8340     2.8860 cx         1 Z1E      -0.096400
      4 N5          -2.1270    -2.1570     1.9180 ns         1 Z1E      -0.489900
      5 N6           0.9920    -0.6010     0.6090 n          1 Z1E      -0.395800
      6 C7           1.9930    -1.5780     0.4020 c          1 Z1E       0.602100
      7 C8          -0.1510    -0.8380     1.5400 c5         1 Z1E       0.033700
      8 C9          -1.3000    -1.6880     0.9130 c          1 Z1E       0.590100
      9 C10          3.0910    -1.3500    -0.6950 c3         1 Z1E       0.067700
     10 C11          0.0760     3.4980    -0.3550 ca         1 Z1E       0.578300
     11 N13          4.3450    -1.9960    -0.2390 ns         1 Z1E      -0.500900
     12 C14          0.9200     4.6210    -0.1680 ca         1 Z1E      -0.066000
     13 C15          1.1260     0.8250     0.2290 c5         1 Z1E       0.082000
     14 C16         -0.6610     0.6160     1.8050 c5         1 Z1E      -0.089400
     15 C17         -0.3200     1.3370     0.4800 c5         1 Z1E       0.168300
     16 O18         -0.2970     2.7660     0.7620 os         1 Z1E      -0.458300
     17 C19          1.2870     5.4020    -1.2890 ca         1 Z1E      -0.013000
     18 N20         -0.4200     3.1610    -1.5690 nb         1 Z1E      -0.736000
     19 O21          6.4800    -2.3510     0.1980 os         1 Z1E      -0.476100
     20 C22          2.6750    -1.8410    -2.1400 c3         1 Z1E      -0.047000
     21 O23          1.9690    -2.6110     1.0670 o          1 Z1E      -0.626100
     22 C24          1.4090     4.9700     1.1120 ca         1 Z1E      -0.063000
     23 O25         -1.4730    -1.9410    -0.2710 o          1 Z1E      -0.549100
     24 O26          5.8320    -0.3290    -0.7360 o          1 Z1E      -0.555000
     25 C27          2.1350     6.5180    -1.1220 ca         1 Z1E      -0.078000
     26 C28          2.6150     6.8550     0.1550 ca         1 Z1E      -0.092000
     27 C29          2.2510     6.0820     1.2680 ca         1 Z1E       0.114000
     28 C30         -0.0670     3.9100    -2.6380 ca         1 Z1E       0.270900
     29 C31          0.7860     5.0390    -2.5580 ca         1 Z1E       0.081100
     30 C32          3.8420    -1.6220    -3.1450 c3         1 Z1E      -0.090100
     31 C33          2.3150    -3.3540    -2.1280 c3         1 Z1E      -0.090100
     32 C34          1.4490    -1.0530    -2.6780 c3         1 Z1E      -0.090100
     33 O35          1.1340     5.7900    -3.6700 os         1 Z1E      -0.333100
     34 Cl1          2.8550     6.5060     2.8640 cl         1 Z1E      -0.196000
     35 C36          0.6570     5.4690    -4.9890 c3         1 Z1E       0.144900
     36 C37          7.9020    -2.0930     0.2590 c3         1 Z1E       0.225000
     37 C38          8.1740    -0.8830     1.1900 c3         1 Z1E      -0.108767
     38 C39          8.4950    -3.3780     0.8780 c3         1 Z1E      -0.108767
     39 C40          8.4560    -1.8930    -1.1760 c3         1 Z1E      -0.108767
     40 C41         -3.7710    -5.4990     0.8440 c3         1 Z1E       0.212300
     41 F42         -3.1180    -5.6350    -0.3320 f          1 Z1E      -0.117000
     42 F43         -3.7580    -6.7120     1.4430 f          1 Z1E      -0.117000
     43 C44         -4.4230    -2.4140     0.8340 c          1 Z1E       0.680100
     44 N45         -5.0740    -1.3900     1.4390 ns         1 Z1E      -0.571300
     45 O46         -4.7100    -2.8290    -0.2780 o          1 Z1E      -0.556100
     46 S47         -6.3770    -0.5300     0.8700 s6         1 Z1E       1.266800
     47 O48         -6.1600    -0.2180    -0.5460 o          1 Z1E      -0.521000
     48 C49         -7.7630    -1.7530     0.9870 cx         1 Z1E      -0.449700
     49 O50         -6.6470     0.5400     1.8340 o          1 Z1E      -0.521000
     50 C51         -9.0070    -1.5980     0.1340 cx         1 Z1E      -0.057900
     51 C52         -8.0450    -2.7370    -0.1320 cx         1 Z1E      -0.057900
     52 H1          -1.9970    -4.8040     1.8900 hc         1 Z1E       0.127700
     53 H2          -3.1720    -3.7360     3.8170 hc         1 Z1E       0.090700
     54 H3          -4.7890    -4.0250     3.0170 hc         1 Z1E       0.090700
     55 H4          -1.8790    -1.8940     2.8660 hn         1 Z1E       0.325500
     56 H5           0.1760    -1.3210     2.4710 h1         1 Z1E       0.073700
     57 H6           3.2790    -0.2710    -0.7430 h1         1 Z1E       0.092700
     58 H7           4.2930    -2.9160     0.1790 hn         1 Z1E       0.340500
     59 H8           1.8570     1.3340     0.8720 h1         1 Z1E       0.075200
     60 H9           1.4200     0.9690    -0.8160 h1         1 Z1E       0.075200
     61 H10         -1.7290     0.6650     2.0470 hc         1 Z1E       0.073200
     62 H11         -0.1210     1.0660     2.6470 hc         1 Z1E       0.073200
     63 H12         -1.0250     1.0740    -0.3220 h1         1 Z1E       0.093700
     64 H13          1.1430     4.3860     1.9900 ha         1 Z1E       0.146000
     65 H14          2.4260     7.1280    -1.9750 ha         1 Z1E       0.137000
     66 H15          3.2690     7.7150     0.2820 ha         1 Z1E       0.132000
     67 H16         -0.4890     3.5860    -3.5880 h4         1 Z1E       0.026100
     68 H17          4.7100    -2.2470    -2.8990 hc         1 Z1E       0.041922
     69 H18          3.5360    -1.8810    -4.1660 hc         1 Z1E       0.041922
     70 H19          4.1660    -0.5740    -3.1480 hc         1 Z1E       0.041922
     71 H20          1.4410    -3.5530    -1.4970 hc         1 Z1E       0.041922
     72 H21          2.0770    -3.7060    -3.1390 hc         1 Z1E       0.041922
     73 H22          3.1500    -3.9600    -1.7550 hc         1 Z1E       0.041922
     74 H23          1.6770     0.0140    -2.7780 hc         1 Z1E       0.041922
     75 H24          1.1590    -1.4170    -3.6720 hc         1 Z1E       0.041922
     76 H25          0.5760    -1.1660    -2.0270 hc         1 Z1E       0.041922
     77 H26          0.9820     4.4640    -5.2880 h1         1 Z1E       0.045033
     78 H27         -0.4390     5.5120    -5.0290 h1         1 Z1E       0.045033
     79 H28          1.0510     6.1850    -5.7210 h1         1 Z1E       0.045033
     80 H29          7.6250    -0.9870     2.1330 hc         1 Z1E       0.049589
     81 H30          9.2430    -0.8170     1.4260 hc         1 Z1E       0.049589
     82 H31          7.8870     0.0650     0.7240 hc         1 Z1E       0.049589
     83 H32          8.2720    -4.2510     0.2530 hc         1 Z1E       0.049589
     84 H33          9.5850    -3.2980     0.9730 hc         1 Z1E       0.049589
     85 H34          8.0790    -3.5580     1.8770 hc         1 Z1E       0.049589
     86 H35          8.1610    -0.9270    -1.5980 hc         1 Z1E       0.049589
     87 H36          9.5520    -1.9230    -1.1690 hc         1 Z1E       0.049589
     88 H37          8.1000    -2.6860    -1.8440 hc         1 Z1E       0.049589
     89 H38         -4.8120    -5.2280     0.6390 h2         1 Z1E       0.081700
     90 H39         -4.8000    -1.1010     2.3610 hn         1 Z1E       0.348500
     91 H40         -7.8650    -2.0740     2.0210 h1         1 Z1E       0.125700
     92 H41         -9.9680    -1.8440     0.5810 hc         1 Z1E       0.091200
     93 H42         -9.0440    -0.7910    -0.5950 hc         1 Z1E       0.091200
     94 H43         -7.4450    -2.6850    -1.0390 hc         1 Z1E       0.091200
     95 H44         -8.3620    -3.7420     0.1390 hc         1 Z1E       0.091200
     96 C12          5.5890    -1.4430    -0.3030 c          1 Z1E       0.653100
@<TRIPOS>BOND
     1     1     2 1   
     2     1     3 1   
     3     1     4 1   
     4     1    43 1   
     5     2     3 1   
     6     2    40 1   
     7     2    52 1   
     8     3    53 1   
     9     3    54 1   
    10     4     8 1   
    11     4    55 1   
    12     5     6 1   
    13     5     7 1   
    14     5    13 1   
    15     6     9 1   
    16     6    21 2   
    17     7     8 1   
    18     7    14 1   
    19     7    56 1   
    20     8    23 2   
    21     9    11 1   
    22     9    20 1   
    23     9    57 1   
    24    10    12 ar  
    25    10    16 1   
    26    10    18 ar  
    27    11    58 1   
    28    11    96 1   
    29    12    17 ar  
    30    12    22 ar  
    31    13    15 1   
    32    13    59 1   
    33    13    60 1   
    34    14    15 1   
    35    14    61 1   
    36    14    62 1   
    37    15    16 1   
    38    15    63 1   
    39    17    25 ar  
    40    17    29 ar  
    41    18    28 ar  
    42    19    36 1   
    43    19    96 1   
    44    20    30 1   
    45    20    31 1   
    46    20    32 1   
    47    22    27 ar  
    48    22    64 1   
    49    24    96 2   
    50    25    26 ar  
    51    25    65 1   
    52    26    27 ar  
    53    26    66 1   
    54    27    34 1   
    55    28    29 ar  
    56    28    67 1   
    57    29    33 1   
    58    30    68 1   
    59    30    69 1   
    60    30    70 1   
    61    31    71 1   
    62    31    72 1   
    63    31    73 1   
    64    32    74 1   
    65    32    75 1   
    66    32    76 1   
    67    33    35 1   
    68    35    77 1   
    69    35    78 1   
    70    35    79 1   
    71    36    37 1   
    72    36    38 1   
    73    36    39 1   
    74    37    80 1   
    75    37    81 1   
    76    37    82 1   
    77    38    83 1   
    78    38    84 1   
    79    38    85 1   
    80    39    86 1   
    81    39    87 1   
    82    39    88 1   
    83    40    41 1   
    84    40    42 1   
    85    40    89 1   
    86    43    44 1   
    87    43    45 2   
    88    44    46 1   
    89    44    90 1   
    90    46    47 2   
    91    46    48 1   
    92    46    49 2   
    93    48    50 1   
    94    48    51 1   
    95    48    91 1   
    96    50    51 1   
    97    50    92 1   
    98    50    93 1   
    99    51    94 1   
   100    51    95 1   
@<TRIPOS>SUBSTRUCTURE
     1 Z1E         1 TEMP              0 ****  ****    0 ROOT
