@<TRIPOS>MOLECULE
Z1E
   96   100     1     0     0
SMALL
abcg2


@<TRIPOS>ATOM
      1 C2          -2.7440    -3.2300     1.1850 cx         1 Z1E      -0.037600
      2 C3          -2.2240    -4.3980     0.3800 cx         1 Z1E      -0.156700
      3 C4          -2.6930    -4.6160     1.7720 cx         1 Z1E      -0.096400
      4 N5          -1.7570    -2.3100     1.6350 ns         1 Z1E      -0.489900
      5 N6           1.1120    -0.6030     0.3990 n          1 Z1E      -0.395800
      6 C7           1.7270    -1.7470     0.0570 c          1 Z1E       0.602100
      7 C8           0.0040    -0.6650     1.3370 c5         1 Z1E       0.033700
      8 C9          -1.1190    -1.5070     0.7500 c          1 Z1E       0.590100
      9 C10          2.8800    -1.6980    -0.9440 c3         1 Z1E       0.067700
     10 C11          0.4160     3.6320    -0.6340 ca         1 Z1E       0.578300
     11 N13          3.9640    -2.4660    -0.3840 ns         1 Z1E      -0.500900
     12 C14          0.3990     5.0390    -0.3790 ca         1 Z1E      -0.066000
     13 C15          1.3690     0.7440    -0.0860 c5         1 Z1E       0.082000
     14 C16         -0.4200     0.7990     1.4970 c5         1 Z1E      -0.089400
     15 C17          0.0470     1.4520     0.2060 c5         1 Z1E       0.168300
     16 O18          0.1730     2.8440     0.4220 os         1 Z1E      -0.458300
     17 C19          0.6610     5.8920    -1.4710 ca         1 Z1E      -0.013000
     18 N20          0.6510     3.1250    -1.7950 nb         1 Z1E      -0.736000
     19 O21          5.9510    -2.8620     0.4610 os         1 Z1E      -0.476100
     20 C22          2.4740    -2.1920    -2.3620 c3         1 Z1E      -0.047000
     21 O23          1.3830    -2.8110     0.5570 o          1 Z1E      -0.626100
     22 C24          0.1330     5.5770     0.8940 ca         1 Z1E      -0.063000
     23 O25         -1.4680    -1.4160    -0.4090 o          1 Z1E      -0.549100
     24 O26          5.4960    -0.7890    -0.3380 o          1 Z1E      -0.555000
     25 C27          0.6550     7.2860    -1.2600 ca         1 Z1E      -0.078000
     26 C28          0.3970     7.8030    -0.0180 ca         1 Z1E      -0.092000
     27 C29          0.1350     6.9360     1.0550 ca         1 Z1E       0.114000
     28 C30          0.9020     3.9400    -2.8490 ca         1 Z1E       0.270900
     29 C31          0.9200     5.3020    -2.7450 ca         1 Z1E       0.081100
     30 C32          3.6920    -2.0410    -3.2770 c3         1 Z1E      -0.090100
     31 C33          2.0330    -3.6560    -2.3630 c3         1 Z1E      -0.090100
     32 C34          1.3400    -1.3230    -2.9090 c3         1 Z1E      -0.090100
     33 O35          1.1660     6.1590    -3.7490 os         1 Z1E      -0.333100
     34 CL1         -0.1920     7.6170     2.6120 cl         1 Z1E      -0.196000
     35 C36          1.4540     5.6210    -5.0260 c3         1 Z1E       0.144900
     36 C37          7.3120    -2.5880     0.8900 c3         1 Z1E       0.225000
     37 C38          7.3350    -1.5230     1.9800 c3         1 Z1E      -0.108767
     38 C39          7.7640    -3.9250     1.4660 c3         1 Z1E      -0.108767
     39 C40          8.1950    -2.2140    -0.2940 c3         1 Z1E      -0.108767
     40 C41         -2.9360    -5.0190    -0.7760 c3         1 Z1E       0.212300
     41 F42         -2.8380    -4.2260    -1.8780 f          1 Z1E      -0.117000
     42 F43         -2.2880    -6.1840    -1.0870 f          1 Z1E      -0.117000
     43 C44         -4.1010    -2.6560     0.9040 c          1 Z1E       0.680100
     44 N45         -4.2810    -1.3990     1.4150 ns         1 Z1E      -0.571300
     45 O46         -4.9680    -3.2600     0.3180 o          1 Z1E      -0.556100
     46 S47         -5.6470    -0.4420     1.2000 s6         1 Z1E       1.266800
     47 O48         -6.0800    -0.5420    -0.1780 o          1 Z1E      -0.521000
     48 C49         -6.8510    -1.1480     2.2550 cx         1 Z1E      -0.449700
     49 O50         -5.2390     0.8440     1.7350 o          1 Z1E      -0.521000
     50 C51         -8.2940    -0.8650     1.9460 cx         1 Z1E      -0.057900
     51 C52         -7.7470    -2.2370     1.7580 cx         1 Z1E      -0.057900
     52 H1          -1.1490    -4.3510     0.2360 hc         1 Z1E       0.127700
     53 H2          -1.9600    -4.7960     2.5470 hc         1 Z1E       0.090700
     54 H3          -3.6440    -5.1140     1.9200 hc         1 Z1E       0.090700
     55 H4          -1.3840    -2.4210     2.5660 hn         1 Z1E       0.325500
     56 H5           0.3270    -1.0810     2.2950 h1         1 Z1E       0.073700
     57 H6           3.2490    -0.6780    -1.0520 h1         1 Z1E       0.092700
     58 H7           3.7740    -3.4130    -0.0950 hn         1 Z1E       0.340500
     59 H8           2.1860     1.2180     0.4680 h1         1 Z1E       0.075200
     60 H9           1.6070     0.7630    -1.1440 h1         1 Z1E       0.075200
     61 H10         -1.4890     0.9210     1.6780 hc         1 Z1E       0.073200
     62 H11          0.1120     1.2350     2.3440 hc         1 Z1E       0.073200
     63 H12         -0.6600     1.2640    -0.6060 h1         1 Z1E       0.093700
     64 H13         -0.0700     4.9260     1.7320 ha         1 Z1E       0.146000
     65 H14          0.8540     7.9620    -2.0790 ha         1 Z1E       0.137000
     66 H15          0.3940     8.8730     0.1370 ha         1 Z1E       0.132000
     67 H16          1.0950     3.4350    -3.7870 h4         1 Z1E       0.026100
     68 H17          4.5210    -2.6750    -2.9610 hc         1 Z1E       0.041922
     69 H18          3.4280    -2.3280    -4.2970 hc         1 Z1E       0.041922
     70 H19          4.0470    -1.0080    -3.3040 hc         1 Z1E       0.041922
     71 H20          1.1220    -3.8180    -1.7890 hc         1 Z1E       0.041922
     72 H21          1.8410    -3.9740    -3.3890 hc         1 Z1E       0.041922
     73 H22          2.8070    -4.3170    -1.9650 hc         1 Z1E       0.041922
     74 H23          1.6520    -0.2820    -3.0240 hc         1 Z1E       0.041922
     75 H24          1.0460    -1.6790    -3.8970 hc         1 Z1E       0.041922
     76 H25          0.4510    -1.3440    -2.2760 hc         1 Z1E       0.041922
     77 H26          2.3510     4.9970    -5.0080 h1         1 Z1E       0.045033
     78 H27          0.6190     5.0310    -5.4140 h1         1 Z1E       0.045033
     79 H28          1.6260     6.4670    -5.6860 h1         1 Z1E       0.045033
     80 H29          6.6490    -1.7800     2.7890 hc         1 Z1E       0.049589
     81 H30          8.3370    -1.4670     2.4070 hc         1 Z1E       0.049589
     82 H31          7.0770    -0.5360     1.6050 hc         1 Z1E       0.049589
     83 H32          7.7250    -4.7150     0.7140 hc         1 Z1E       0.049589
     84 H33          8.7930    -3.8470     1.8160 hc         1 Z1E       0.049589
     85 H34          7.1450    -4.2240     2.3130 hc         1 Z1E       0.049589
     86 H35          7.9280    -1.2520    -0.7250 hc         1 Z1E       0.049589
     87 H36          9.2320    -2.1540     0.0400 hc         1 Z1E       0.049589
     88 H37          8.1450    -2.9740    -1.0760 hc         1 Z1E       0.049589
     89 H38         -3.9820    -5.2530    -0.6030 h2         1 Z1E       0.081700
     90 H39         -3.5620    -0.9930     2.0020 hn         1 Z1E       0.348500
     91 H40         -6.5240    -1.1510     3.2880 h1         1 Z1E       0.125700
     92 H41         -8.9240    -0.6580     2.7990 hc         1 Z1E       0.091200
     93 H42         -8.5290    -0.2890     1.0600 hc         1 Z1E       0.091200
     94 H43         -7.6070    -2.5930     0.7480 hc         1 Z1E       0.091200
     95 H44         -7.9930    -3.0040     2.4800 hc         1 Z1E       0.091200
     96 C12          5.1750    -1.9360    -0.1020 c          1 Z1E       0.653100
@<TRIPOS>BOND
     1     1     2 1   
     2     1     3 1   
     3     1     4 1   
     4     1    43 1   
     5     2     3 1   
     6     2    40 1   
     7     2    52 1   
     8     3    53 1   
     9     3    54 1   
    10     4     8 1   
    11     4    55 1   
    12     5     6 1   
    13     5     7 1   
    14     5    13 1   
    15     6     9 1   
    16     6    21 2   
    17     7     8 1   
    18     7    14 1   
    19     7    56 1   
    20     8    23 2   
    21     9    11 1   
    22     9    20 1   
    23     9    57 1   
    24    10    12 ar  
    25    10    16 1   
    26    10    18 ar  
    27    11    58 1   
    28    11    96 1   
    29    12    17 ar  
    30    12    22 ar  
    31    13    15 1   
    32    13    59 1   
    33    13    60 1   
    34    14    15 1   
    35    14    61 1   
    36    14    62 1   
    37    15    16 1   
    38    15    63 1   
    39    17    25 ar  
    40    17    29 ar  
    41    18    28 ar  
    42    19    36 1   
    43    19    96 1   
    44    20    30 1   
    45    20    31 1   
    46    20    32 1   
    47    22    27 ar  
    48    22    64 1   
    49    24    96 2   
    50    25    26 ar  
    51    25    65 1   
    52    26    27 ar  
    53    26    66 1   
    54    27    34 1   
    55    28    29 ar  
    56    28    67 1   
    57    29    33 1   
    58    30    68 1   
    59    30    69 1   
    60    30    70 1   
    61    31    71 1   
    62    31    72 1   
    63    31    73 1   
    64    32    74 1   
    65    32    75 1   
    66    32    76 1   
    67    33    35 1   
    68    35    77 1   
    69    35    78 1   
    70    35    79 1   
    71    36    37 1   
    72    36    38 1   
    73    36    39 1   
    74    37    80 1   
    75    37    81 1   
    76    37    82 1   
    77    38    83 1   
    78    38    84 1   
    79    38    85 1   
    80    39    86 1   
    81    39    87 1   
    82    39    88 1   
    83    40    41 1   
    84    40    42 1   
    85    40    89 1   
    86    43    44 1   
    87    43    45 2   
    88    44    46 1   
    89    44    90 1   
    90    46    47 2   
    91    46    48 1   
    92    46    49 2   
    93    48    50 1   
    94    48    51 1   
    95    48    91 1   
    96    50    51 1   
    97    50    92 1   
    98    50    93 1   
    99    51    94 1   
   100    51    95 1   
@<TRIPOS>SUBSTRUCTURE
     1 Z1E         1 TEMP              0 ****  ****    0 ROOT
