@<TRIPOS>MOLECULE
Z1I
   61    63     1     0     0
SMALL
No Charge or Current Charge


@<TRIPOS>ATOM
      1 C10         -2.0110    16.8660   -12.9490 c6         1 Z1I      -0.176700
      2 C11         -3.1080    16.6690   -14.0130 c          1 Z1I       0.613100
      3 N13         -2.7150    15.9580   -15.1410 ns         1 Z1I      -0.145000
      4 C14         -3.4110    15.5680   -16.3170 ca         1 Z1I       0.012000
      5 C16         -5.3840    15.4510   -17.7530 ca         1 Z1I       0.210000
      6 C20         -3.3110    14.4120   -18.4730 ca         1 Z1I      -0.047000
      7 C21         -2.6940    14.8350   -17.2820 ca         1 Z1I      -0.182000
      8 C22         -1.5830    18.3450   -12.7640 c6         1 Z1I      -0.071400
      9 C24         -0.0590    19.9500   -11.4830 c3         1 Z1I       0.159800
     10 C03         -0.0430    12.1650    -8.5710 c6         1 Z1I       0.151000
     11 C04          0.9510    10.9680    -8.5180 c3         1 Z1I      -0.089100
     12 C05         -0.0060    12.7780   -10.0010 c6         1 Z1I       0.090500
     13 C07         -0.4010    15.2670   -10.1990 c          1 Z1I       0.639100
     14 C09         -2.3370    16.1400   -11.6220 c6         1 Z1I       0.111000
     15 C15         -4.7680    15.8730   -16.5640 ca         1 Z1I      -0.177000
     16 C18         -4.6590    14.7190   -18.7120 ca         1 Z1I       0.036000
     17 C23         -0.4490    18.4610   -11.7120 c6         1 Z1I      -0.092700
     18 C26         -0.8780    17.7480   -10.4000 c6         1 Z1I       0.097000
     19 C28         -2.2980    13.6220    -9.7310 c6         1 Z1I       0.090500
     20 C29         -2.3660    12.9880    -8.3060 c6         1 Z1I       0.151000
     21 C30         -3.8530    12.6650    -7.9790 c3         1 Z1I      -0.089100
     22 F17         -6.6850    15.7550   -17.9690 f          1 Z1I      -0.159000
     23 N02         -1.4480    11.8020    -8.1660 n3         1 Z1I      -0.715600
     24 N06         -0.9050    13.9490   -10.1380 n          1 Z1I      -0.401800
     25 N08         -1.2430    16.3210   -10.6270 n          1 Z1I      -0.410800
     26 N25          1.1140    20.1360   -10.6070 n8         1 Z1I      -0.992200
     27 O12         -4.2340    17.1180   -13.8390 o          1 Z1I      -0.572100
     28 O27          0.7590    15.4950    -9.8840 o          1 Z1I      -0.617100
     29 Cl1         -5.4220    14.1830   -20.2090 cl         1 Z1I      -0.168000
     30 H1          -1.1230    16.3550   -13.3470 hc         1 Z1I       0.068700
     31 H2          -1.7490    15.6600   -15.1240 hn         1 Z1I       0.156000
     32 H3          -2.7440    13.8460   -19.2100 ha         1 Z1I       0.132000
     33 H4          -1.6470    14.5890   -17.1110 ha         1 Z1I       0.119000
     34 H5          -1.2510    18.7630   -13.7250 hc         1 Z1I       0.049700
     35 H6          -2.4500    18.9420   -12.4450 hc         1 Z1I       0.049700
     36 H7           0.1700    20.4070   -12.4550 h1         1 Z1I       0.027200
     37 H8          -0.9130    20.4870   -11.0460 h1         1 Z1I       0.027200
     38 H9          -0.8940    10.2740    -6.7580 h1         1 Z1I       0.031367
     39 H10         -1.1790    11.8780    -6.0410 h1         1 Z1I       0.031367
     40 H11         -2.5350    10.8540    -6.5710 h1         1 Z1I       0.031367
     41 H12          0.3430    12.9300    -7.8800 h1         1 Z1I       0.034200
     42 H14          0.5710    10.1090    -9.0850 hc         1 Z1I       0.040533
     43 H15          1.9230    11.2440    -8.9430 hc         1 Z1I       0.040533
     44 H16         -0.3170    12.0120   -10.7270 h1         1 Z1I       0.063700
     45 H17          1.0250    13.0560   -10.2580 h1         1 Z1I       0.063700
     46 H18         -3.2750    16.5330   -11.2020 h1         1 Z1I       0.071200
     47 H19         -2.4940    15.0770   -11.8510 h1         1 Z1I       0.071200
     48 H20         -5.3660    16.4350   -15.8550 ha         1 Z1I       0.169000
     49 H21          0.4470    17.9600   -12.1040 hc         1 Z1I       0.082700
     50 H22         -0.0720    17.8170    -9.6550 h1         1 Z1I       0.060700
     51 H23         -1.7470    18.2680    -9.9710 h1         1 Z1I       0.060700
     52 H24         -2.9230    14.5240    -9.7200 h1         1 Z1I       0.063700
     53 H25         -2.7300    12.9260   -10.4640 h1         1 Z1I       0.063700
     54 H26         -2.0480    13.7660    -7.5960 h1         1 Z1I       0.034200
     55 H27         -4.0010    12.4460    -6.9160 hc         1 Z1I       0.040533
     56 H28         -4.5030    13.5170    -8.2140 hc         1 Z1I       0.040533
     57 H29         -4.2110    11.8060    -8.5590 hc         1 Z1I       0.040533
     58 H31          1.2890    21.1420   -10.4940 hn         1 Z1I       0.394500
     59 H32          0.8780    19.8260    -9.6580 hn         1 Z1I       0.394500
     60 H13          1.1440    10.6400    -7.4900 hc         1 Z1I       0.040533
     61 C01         -1.5160    11.1760    -6.8150 c3         1 Z1I       0.150100
@<TRIPOS>BOND
     1     1     2 1   
     2     1     8 1   
     3     1    14 1   
     4     1    30 1   
     5     2     3 1   
     6     2    27 2   
     7     3     4 1   
     8     3    31 1   
     9     4     7 ar  
    10     4    15 ar  
    11     5    15 ar  
    12     5    16 ar  
    13     5    22 1   
    14     6     7 ar  
    15     6    16 ar  
    16     6    32 1   
    17     7    33 1   
    18     8    17 1   
    19     8    34 1   
    20     8    35 1   
    21     9    17 1   
    22     9    26 1   
    23     9    36 1   
    24     9    37 1   
    25    10    11 1   
    26    10    12 1   
    27    10    23 1   
    28    10    41 1   
    29    11    42 1   
    30    11    43 1   
    31    11    60 1   
    32    12    24 1   
    33    12    44 1   
    34    12    45 1   
    35    13    24 1   
    36    13    25 1   
    37    13    28 2   
    38    14    25 1   
    39    14    46 1   
    40    14    47 1   
    41    15    48 1   
    42    16    29 1   
    43    17    18 1   
    44    17    49 1   
    45    18    25 1   
    46    18    50 1   
    47    18    51 1   
    48    19    20 1   
    49    19    24 1   
    50    19    52 1   
    51    19    53 1   
    52    20    21 1   
    53    20    23 1   
    54    20    54 1   
    55    21    55 1   
    56    21    56 1   
    57    21    57 1   
    58    23    61 1   
    59    26    58 1   
    60    26    59 1   
    61    38    61 1   
    62    39    61 1   
    63    40    61 1   
@<TRIPOS>SUBSTRUCTURE
     1 Z1I         1 TEMP              0 ****  ****    0 ROOT
