@<TRIPOS>MOLECULE
Z1I
   61    63     1     0     0
SMALL
abcg2


@<TRIPOS>ATOM
      1 C10         -1.9890    16.3340   -12.9910 c6         1 Z1I      -0.176700
      2 C11         -3.0720    16.1870   -14.0410 c          1 Z1I       0.613100
      3 N13         -2.5960    15.9670   -15.2980 ns         1 Z1I      -0.145000
      4 C14         -3.3020    15.8270   -16.4900 ca         1 Z1I       0.012000
      5 C16         -5.2910    15.6650   -17.8050 ca         1 Z1I       0.210000
      6 C20         -3.1770    15.5120   -18.8850 ca         1 Z1I      -0.047000
      7 C21         -2.5550    15.6680   -17.6610 ca         1 Z1I      -0.182000
      8 C22         -1.5530    17.8020   -12.8970 c6         1 Z1I      -0.071400
      9 C24         -0.1830    19.4850   -11.6500 c3         1 Z1I       0.159800
     10 C03         -0.0210    12.3360    -8.4640 c6         1 Z1I       0.151000
     11 C04          0.9500    11.1670    -8.3560 c3         1 Z1I      -0.089100
     12 C05         -0.1670    12.7030    -9.9360 c6         1 Z1I       0.090500
     13 C07         -0.5780    15.0730   -10.2390 c          1 Z1I       0.639100
     14 C09         -2.4840    15.8250   -11.6340 c6         1 Z1I       0.111000
     15 C15         -4.6950    15.8250   -16.5710 ca         1 Z1I      -0.177000
     16 C18         -4.5610    15.5080   -18.9690 ca         1 Z1I       0.036000
     17 C23         -0.5290    18.0070   -11.7840 c6         1 Z1I      -0.092700
     18 C26         -1.0840    17.4340   -10.4820 c6         1 Z1I       0.097000
     19 C28         -2.3800    13.5170    -9.5650 c6         1 Z1I       0.090500
     20 C29         -2.2720    13.1320    -8.0900 c6         1 Z1I       0.151000
     21 C30         -3.6740    12.7960    -7.5950 c3         1 Z1I      -0.089100
     22 F17         -6.6240    15.6610   -17.8720 f          1 Z1I      -0.159000
     23 N02         -1.3390    12.0220    -7.9080 n3         1 Z1I      -0.715600
     24 N06         -1.0840    13.8000   -10.1490 n          1 Z1I      -0.401800
     25 N08         -1.4780    16.0430   -10.6100 n          1 Z1I      -0.410800
     26 N25          0.9020    19.7120   -10.7050 n8         1 Z1I      -0.992200
     27 O12         -4.2560    16.2840   -13.7760 o          1 Z1I      -0.572100
     28 O27          0.5960    15.3300   -10.0030 o          1 Z1I      -0.617100
     29 CL1         -5.3700    15.3130   -20.4770 cl         1 Z1I      -0.168000
     30 H1          -1.1190    15.7330   -13.2810 hc         1 Z1I       0.068700
     31 H2          -1.5920    15.9180   -15.3900 hn         1 Z1I       0.156000
     32 H3          -2.5820    15.3910   -19.7800 ha         1 Z1I       0.132000
     33 H4          -1.4730    15.6680   -17.6170 ha         1 Z1I       0.119000
     34 H5          -1.1370    18.1320   -13.8520 hc         1 Z1I       0.049700
     35 H6          -2.4320    18.4260   -12.6980 hc         1 Z1I       0.049700
     36 H7           0.1410    19.8500   -12.6280 h1         1 Z1I       0.027200
     37 H8          -1.1020    20.0400   -11.4050 h1         1 Z1I       0.027200
     38 H9          -0.5850    10.7770    -6.3980 h1         1 Z1I       0.031367
     39 H10         -0.8810    12.4380    -5.8630 h1         1 Z1I       0.031367
     40 H11         -2.2210    11.3160    -6.1380 h1         1 Z1I       0.031367
     41 H12          0.4190    13.2050    -7.9410 h1         1 Z1I       0.034200
     42 H14          0.4950    10.2510    -8.7370 hc         1 Z1I       0.040533
     43 H15          1.8410    11.3730    -8.9500 hc         1 Z1I       0.040533
     44 H16         -0.5470    11.8310   -10.4800 h1         1 Z1I       0.063700
     45 H17          0.8060    12.9490   -10.3550 h1         1 Z1I       0.063700
     46 H18         -3.3980    16.3520   -11.3490 h1         1 Z1I       0.071200
     47 H19         -2.7290    14.7690   -11.7140 h1         1 Z1I       0.071200
     48 H20         -5.3190    15.9420   -15.7000 ha         1 Z1I       0.169000
     49 H21          0.3880    17.4630   -12.0390 hc         1 Z1I       0.082700
     50 H22         -0.3690    17.5260    -9.6680 h1         1 Z1I       0.060700
     51 H23         -1.9750    18.0070   -10.1950 h1         1 Z1I       0.060700
     52 H24         -3.0340    14.3820    -9.6370 h1         1 Z1I       0.063700
     53 H25         -2.8530    12.6990   -10.1210 h1         1 Z1I       0.063700
     54 H26         -1.9150    14.0260    -7.5440 h1         1 Z1I       0.034200
     55 H27         -3.7380    12.7350    -6.5100 hc         1 Z1I       0.040533
     56 H28         -4.3740    13.5720    -7.9100 hc         1 Z1I       0.040533
     57 H29         -4.0130    11.8470    -8.0120 hc         1 Z1I       0.040533
     58 H31          1.2270    20.6660   -10.7950 hn         1 Z1I       0.394500
     59 H32          0.5580    19.6380    -9.7570 hn         1 Z1I       0.394500
     60 H13          1.2850    10.9840    -7.3370 hc         1 Z1I       0.040533
     61 C01         -1.2500    11.6300    -6.5140 c3         1 Z1I       0.150100
@<TRIPOS>BOND
     1     1     2 1   
     2     1     8 1   
     3     1    14 1   
     4     1    30 1   
     5     2     3 1   
     6     2    27 2   
     7     3     4 1   
     8     3    31 1   
     9     4     7 ar  
    10     4    15 ar  
    11     5    15 ar  
    12     5    16 ar  
    13     5    22 1   
    14     6     7 ar  
    15     6    16 ar  
    16     6    32 1   
    17     7    33 1   
    18     8    17 1   
    19     8    34 1   
    20     8    35 1   
    21     9    17 1   
    22     9    26 1   
    23     9    36 1   
    24     9    37 1   
    25    10    11 1   
    26    10    12 1   
    27    10    23 1   
    28    10    41 1   
    29    11    42 1   
    30    11    43 1   
    31    11    60 1   
    32    12    24 1   
    33    12    44 1   
    34    12    45 1   
    35    13    24 1   
    36    13    25 1   
    37    13    28 2   
    38    14    25 1   
    39    14    46 1   
    40    14    47 1   
    41    15    48 1   
    42    16    29 1   
    43    17    18 1   
    44    17    49 1   
    45    18    25 1   
    46    18    50 1   
    47    18    51 1   
    48    19    20 1   
    49    19    24 1   
    50    19    52 1   
    51    19    53 1   
    52    20    21 1   
    53    20    23 1   
    54    20    54 1   
    55    21    55 1   
    56    21    56 1   
    57    21    57 1   
    58    23    61 1   
    59    26    58 1   
    60    26    59 1   
    61    38    61 1   
    62    39    61 1   
    63    40    61 1   
@<TRIPOS>SUBSTRUCTURE
     1 Z1I         1 TEMP              0 ****  ****    0 ROOT
