@<TRIPOS>MOLECULE
Z1L
   23    24     1     0     0
SMALL
No Charge or Current Charge


@<TRIPOS>ATOM
      1 C4          -2.5200   -40.0680    -1.0820 ca         1 Z1L       0.361000
      2 C5          -1.7730   -41.1000    -1.6820 ca         1 Z1L      -0.182000
      3 C6          -1.1810   -40.9090    -2.9430 ca         1 Z1L      -0.079500
      4 C7          -1.3330   -39.6820    -3.6090 ca         1 Z1L      -0.196000
      5 C8          -2.0760   -38.6480    -3.0180 ca         1 Z1L      -0.079500
      6 O1          -5.3440   -42.3900     0.9070 o          1 Z1L      -0.718000
      7 C           -4.1670   -42.5350     0.5950 c          1 Z1L       0.730000
      8 O           -3.7560   -43.5120    -0.0210 o          1 Z1L      -0.718000
      9 C1          -3.1480   -41.4230     1.0100 cx         1 Z1L       0.023200
     10 C3          -1.8470   -41.8360     1.6720 cx         1 Z1L      -0.127400
     11 C2          -2.9370   -41.1990     2.4940 cx         1 Z1L      -0.127400
     12 N           -3.1230   -40.2190     0.1730 nu         1 Z1L      -0.895200
     13 C9          -2.6660   -38.8440    -1.7570 ca         1 Z1L      -0.182000
     14 H1          -1.6470   -42.0520    -1.1790 ha         1 Z1L       0.112000
     15 H2          -0.6050   -41.7100    -3.4010 ha         1 Z1L       0.086000
     16 H3          -0.8750   -39.5330    -4.5840 ha         1 Z1L       0.088000
     17 H4          -2.1940   -37.6980    -3.5330 ha         1 Z1L       0.086000
     18 H6          -1.6630   -42.8980     1.8150 hc         1 Z1L       0.061700
     19 H7          -0.9580   -41.2460     1.4660 hc         1 Z1L       0.061700
     20 H8          -2.7750   -40.1830     2.8450 hc         1 Z1L       0.061700
     21 H9          -3.4820   -41.8360     3.1860 hc         1 Z1L       0.061700
     22 H10         -3.6630   -39.4030     0.4650 hn         1 Z1L       0.460000
     23 H11         -3.2390   -38.0390    -1.3050 ha         1 Z1L       0.112000
@<TRIPOS>BOND
     1     1     2 ar  
     2     1    12 1   
     3     1    13 ar  
     4     2     3 ar  
     5     2    14 1   
     6     3     4 ar  
     7     3    15 1   
     8     4     5 ar  
     9     4    16 1   
    10     5    13 ar  
    11     5    17 1   
    12     6     7 1   
    13     7     8 1   
    14     7     9 1   
    15     9    10 1   
    16     9    11 1   
    17     9    12 1   
    18    10    11 1   
    19    10    18 1   
    20    10    19 1   
    21    11    20 1   
    22    11    21 1   
    23    12    22 1   
    24    13    23 1   
@<TRIPOS>SUBSTRUCTURE
     1 Z1L         1 TEMP              0 ****  ****    0 ROOT
