@<TRIPOS>MOLECULE
Z1L
   23    24     1     0     0
SMALL
abcg2


@<TRIPOS>ATOM
      1 C4          -2.4890   -40.0240    -0.9750 ca         1 Z1L       0.361000
      2 C5          -1.7510   -41.0490    -1.5830 ca         1 Z1L      -0.182000
      3 C6          -1.2530   -40.8910    -2.8690 ca         1 Z1L      -0.079500
      4 C7          -1.4770   -39.7270    -3.5920 ca         1 Z1L      -0.196000
      5 C8          -2.2160   -38.7100    -2.9970 ca         1 Z1L      -0.079500
      6 O1          -4.8960   -41.9370    -0.3870 o          1 Z1L      -0.718000
      7 C           -4.0970   -42.3680     0.4650 c          1 Z1L       0.730000
      8 O           -4.0650   -43.5110     0.9610 o          1 Z1L      -0.718000
      9 C1          -3.0550   -41.3680     0.9830 cx         1 Z1L       0.023200
     10 C3          -1.7890   -41.8940     1.6030 cx         1 Z1L      -0.127400
     11 C2          -2.8490   -41.3180     2.4750 cx         1 Z1L      -0.127400
     12 N           -2.9500   -40.1110     0.3180 nu         1 Z1L      -0.895200
     13 C9          -2.7140   -38.8510    -1.7130 ca         1 Z1L      -0.182000
     14 H1          -1.5640   -41.9740    -1.0540 ha         1 Z1L       0.112000
     15 H2          -0.6850   -41.7010    -3.3110 ha         1 Z1L       0.086000
     16 H3          -1.0870   -39.6140    -4.5950 ha         1 Z1L       0.088000
     17 H4          -2.4100   -37.7930    -3.5390 ha         1 Z1L       0.086000
     18 H6          -1.6420   -42.9650     1.6070 hc         1 Z1L       0.061700
     19 H7          -0.8890   -41.3100     1.4540 hc         1 Z1L       0.061700
     20 H8          -2.6730   -40.3460     2.9180 hc         1 Z1L       0.061700
     21 H9          -3.4410   -41.9910     3.0810 hc         1 Z1L       0.061700
     22 H10         -3.6930   -39.4630     0.5330 hn         1 Z1L       0.460000
     23 H11         -3.2870   -38.0450    -1.2680 ha         1 Z1L       0.112000
@<TRIPOS>BOND
     1     1     2 ar  
     2     1    12 1   
     3     1    13 ar  
     4     2     3 ar  
     5     2    14 1   
     6     3     4 ar  
     7     3    15 1   
     8     4     5 ar  
     9     4    16 1   
    10     5    13 ar  
    11     5    17 1   
    12     6     7 1   
    13     7     8 1   
    14     7     9 1   
    15     9    10 1   
    16     9    11 1   
    17     9    12 1   
    18    10    11 1   
    19    10    18 1   
    20    10    19 1   
    21    11    20 1   
    22    11    21 1   
    23    12    22 1   
    24    13    23 1   
@<TRIPOS>SUBSTRUCTURE
     1 Z1L         1 TEMP              0 ****  ****    0 ROOT
