@<TRIPOS>MOLECULE
Z1T
  129   128     1     0     0
SMALL
No Charge or Current Charge


@<TRIPOS>ATOM
      1 C1         -12.3240  -101.4540   -43.6430 c3         1 Z1T      -0.088100
      2 N1          -2.7580   -94.3640   -55.7210 ns         1 Z1T      -0.495900
      3 O1          -6.1400   -93.5660   -54.2980 oh         1 Z1T      -0.647000
      4 C2         -11.6460  -102.3360   -44.7090 c3         1 Z1T      -0.074400
      5 C3         -10.5500  -101.5920   -45.5030 c3         1 Z1T      -0.076400
      6 C4          -9.8700  -102.4760   -46.5710 c3         1 Z1T      -0.074400
      7 C5          -8.7750  -101.7310   -47.3640 c3         1 Z1T      -0.075400
      8 C6          -8.0950  -102.6150   -48.4330 c3         1 Z1T      -0.074400
      9 C7          -6.9990  -101.8700   -49.2250 c3         1 Z1T      -0.077400
     10 C8          -6.3220  -102.7560   -50.2970 c3         1 Z1T      -0.072400
     11 C9          -5.1560  -102.0730   -51.0500 c3         1 Z1T      -0.073400
     12 C10         -5.5770  -100.8780   -51.9380 c3         1 Z1T      -0.078400
     13 C11         -4.3880  -100.2760   -52.7190 c3         1 Z1T      -0.076400
     14 C12         -4.7500   -99.1000   -53.6560 c3         1 Z1T      -0.070400
     15 C13         -5.1590   -97.8040   -52.9210 c3         1 Z1T      -0.045200
     16 C14         -5.4550   -96.6760   -53.8860 c2         1 Z1T      -0.200200
     17 C15         -4.8060   -95.5010   -53.9380 c2         1 Z1T      -0.213200
     18 C16         -5.1270   -94.3770   -54.9010 c3         1 Z1T       0.200500
     19 C17         -3.8850   -93.5140   -55.2790 c3         1 Z1T       0.074700
     20 C18         -4.2270   -92.4330   -56.3460 c3         1 Z1T       0.145600
     21 O3          -1.1070   -93.3790   -54.4880 o          1 Z1T      -0.598100
     22 C20         -0.4450   -95.1420   -56.0090 c3         1 Z1T      -0.155400
     23 C21          0.2410   -96.1310   -55.0360 c3         1 Z1T      -0.064400
     24 C22         -0.7250   -97.1210   -54.3450 c3         1 Z1T      -0.077400
     25 C23          0.0150   -98.1100   -53.4170 c3         1 Z1T      -0.073400
     26 C24         -0.9290   -99.1040   -52.7100 c3         1 Z1T      -0.077400
     27 C25         -0.1800  -100.0950   -51.7920 c3         1 Z1T      -0.076400
     28 C26         -1.1140  -101.1050   -51.0860 c3         1 Z1T      -0.072400
     29 C27         -0.3840  -102.1430   -50.2020 c3         1 Z1T      -0.072400
     30 C28          0.2840  -101.5480   -48.9400 c3         1 Z1T      -0.076400
     31 C29          0.9680  -102.6160   -48.0600 c3         1 Z1T      -0.078400
     32 C30          1.6440  -102.0170   -46.8040 c3         1 Z1T      -0.072400
     33 C31          2.3070  -103.0570   -45.8670 c3         1 Z1T      -0.072400
     34 C32          3.4500  -103.8540   -46.5330 c3         1 Z1T      -0.080400
     35 C33          4.2400  -104.7570   -45.5600 c3         1 Z1T      -0.072400
     36 C34          5.4180  -105.5200   -46.2180 c3         1 Z1T      -0.073400
     37 C35          5.0100  -106.6470   -47.2110 c3         1 Z1T      -0.073400
     38 C36          5.4750  -106.4400   -48.6760 c3         1 Z1T      -0.072400
     39 C37          4.7490  -105.2940   -49.4150 c3         1 Z1T      -0.081400
     40 C38          5.1830  -105.1220   -50.8870 c3         1 Z1T      -0.071400
     41 C39          4.3250  -104.1050   -51.6790 c3         1 Z1T      -0.073400
     42 C40          4.3580  -102.6600   -51.1260 c3         1 Z1T      -0.078400
     43 C41          3.5480  -101.6690   -51.9890 c3         1 Z1T      -0.076400
     44 C42          3.5590  -100.2320   -51.4320 c3         1 Z1T      -0.089100
     45 H11        -13.0920  -102.0250   -43.1080 hc         1 Z1T       0.031367
     46 H12        -11.5900  -101.0960   -42.9120 hc         1 Z1T       0.031367
     47 H13        -12.8040  -100.5840   -44.1080 hc         1 Z1T       0.031367
     48 H11N        -2.9370   -95.0780   -56.4160 hn         1 Z1T       0.304500
     49 H1O         -6.6630   -93.1660   -55.0270 ho         1 Z1T       0.439000
     50 H21        -11.2070  -103.2140   -44.2180 hc         1 Z1T       0.036200
     51 H22        -12.4100  -102.7070   -45.4040 hc         1 Z1T       0.036200
     52 H31        -10.9930  -100.7140   -45.9900 hc         1 Z1T       0.036700
     53 H32         -9.7890  -101.2210   -44.8050 hc         1 Z1T       0.036700
     54 H41         -9.4280  -103.3540   -46.0830 hc         1 Z1T       0.036700
     55 H42        -10.6310  -102.8470   -47.2690 hc         1 Z1T       0.036700
     56 H51         -9.2170  -100.8530   -47.8520 hc         1 Z1T       0.037200
     57 H52         -8.0140  -101.3600   -46.6660 hc         1 Z1T       0.037200
     58 H61         -7.6530  -103.4930   -47.9450 hc         1 Z1T       0.036700
     59 H62         -8.8560  -102.9860   -49.1310 hc         1 Z1T       0.036700
     60 H71         -7.4480  -100.9920   -49.7050 hc         1 Z1T       0.038200
     61 H72         -6.2370  -101.5020   -48.5270 hc         1 Z1T       0.038200
     62 H81         -5.9330  -103.6600   -49.8110 hc         1 Z1T       0.037200
     63 H82         -7.0740  -103.0910   -51.0220 hc         1 Z1T       0.037200
     64 H91         -4.4040  -101.7390   -50.3230 hc         1 Z1T       0.037200
     65 H92         -4.6660  -102.8250   -51.6810 hc         1 Z1T       0.037200
     66 H101        -6.3470  -101.2060   -52.6470 hc         1 Z1T       0.038700
     67 H102        -6.0250  -100.1000   -51.3090 hc         1 Z1T       0.038700
     68 H111        -3.6330   -99.9360   -52.0020 hc         1 Z1T       0.038700
     69 H112        -3.9210  -101.0670   -53.3190 hc         1 Z1T       0.038700
     70 H121        -3.8800   -98.8790   -54.2870 hc         1 Z1T       0.038700
     71 H122        -5.5560   -99.4100   -54.3320 hc         1 Z1T       0.038700
     72 H131        -6.0470   -97.9940   -52.3070 hc         1 Z1T       0.050700
     73 H132        -4.3570   -97.5160   -52.2300 hc         1 Z1T       0.050700
     74 H141        -6.2810   -96.8770   -54.5710 ha         1 Z1T       0.159000
     75 H151        -3.9860   -95.2880   -53.2510 ha         1 Z1T       0.191000
     76 H161        -5.5190   -94.8250   -55.8250 h1         1 Z1T       0.023700
     77 H171        -3.5790   -92.9840   -54.3670 h1         1 Z1T       0.111700
     78 H181        -5.0220   -91.7820   -55.9620 h1         1 Z1T       0.016200
     79 H182        -4.6130   -92.9320   -57.2450 h1         1 Z1T       0.016200
     80 H201        -0.9410   -95.7090   -56.8070 hc         1 Z1T       0.055200
     81 H202         0.3350   -94.5170   -56.4590 hc         1 Z1T       0.055200
     82 H211         0.9950   -96.7000   -55.5930 hc         1 Z1T       0.050700
     83 H212         0.7830   -95.5620   -54.2700 hc         1 Z1T       0.050700
     84 H221        -1.4670   -96.5640   -53.7590 hc         1 Z1T       0.039200
     85 H222        -1.2760   -97.6840   -55.1090 hc         1 Z1T       0.039200
     86 H231         0.7530   -98.6710   -54.0040 hc         1 Z1T       0.038700
     87 H232         0.5720   -97.5440   -52.6590 hc         1 Z1T       0.038700
     88 H241        -1.6600   -98.5430   -52.1150 hc         1 Z1T       0.036200
     89 H242        -1.4880   -99.6680   -53.4670 hc         1 Z1T       0.036200
     90 H251         0.5530  -100.6470   -52.3920 hc         1 Z1T       0.039200
     91 H252         0.3810   -99.5230   -51.0430 hc         1 Z1T       0.039200
     92 H261        -1.8430  -100.5610   -50.4710 hc         1 Z1T       0.036200
     93 H262        -1.6870  -101.6460   -51.8490 hc         1 Z1T       0.036200
     94 H271        -1.1130  -102.9010   -49.8880 hc         1 Z1T       0.037200
     95 H272         0.3690  -102.6650   -50.8040 hc         1 Z1T       0.037200
     96 H281         1.0340  -100.8060   -49.2360 hc         1 Z1T       0.038200
     97 H282        -0.4730  -101.0210   -48.3460 hc         1 Z1T       0.038200
     98 H291         0.2250  -103.3620   -47.7510 hc         1 Z1T       0.038200
     99 H292         1.7150  -103.1380   -48.6690 hc         1 Z1T       0.038200
    100 H301         2.4000  -101.2860   -47.1160 hc         1 Z1T       0.037200
    101 H302         0.8930  -101.4620   -46.2270 hc         1 Z1T       0.037200
    102 H311         2.7040  -102.5290   -44.9910 hc         1 Z1T       0.037200
    103 H312         1.5450  -103.7540   -45.4980 hc         1 Z1T       0.037200
    104 H321         3.0230  -104.4800   -47.3230 hc         1 Z1T       0.039200
    105 H322         4.1440  -103.1500   -47.0080 hc         1 Z1T       0.039200
    106 H331         4.6410  -104.1330   -44.7520 hc         1 Z1T       0.036700
    107 H332         3.5570  -105.4760   -45.0890 hc         1 Z1T       0.036700
    108 H341         6.0870  -104.8030   -46.7090 hc         1 Z1T       0.037700
    109 H342         6.0120  -105.9750   -45.4150 hc         1 Z1T       0.037700
    110 H351         5.4450  -107.5880   -46.8520 hc         1 Z1T       0.037700
    111 H352         3.9240  -106.7970   -47.1910 hc         1 Z1T       0.037700
    112 H361         6.5570  -106.2610   -48.6930 hc         1 Z1T       0.036200
    113 H362         5.3040  -107.3740   -49.2260 hc         1 Z1T       0.036200
    114 H371         3.6680  -105.4760   -49.3820 hc         1 Z1T       0.039700
    115 H372         4.9430  -104.3560   -48.8850 hc         1 Z1T       0.039700
    116 H381         6.2360  -104.8170   -50.9220 hc         1 Z1T       0.036700
    117 H382         5.1200  -106.0940   -51.3930 hc         1 Z1T       0.036700
    118 H391         4.6750  -104.0940   -52.7190 hc         1 Z1T       0.035700
    119 H392         3.2860  -104.4570   -51.7030 hc         1 Z1T       0.035700
    120 H401         3.9520  -102.6460   -50.1070 hc         1 Z1T       0.038700
    121 H402         5.3990  -102.3190   -51.0630 hc         1 Z1T       0.038700
    122 H411         3.9520  -101.6590   -53.0080 hc         1 Z1T       0.035700
    123 H412         2.5110  -102.0180   -52.0590 hc         1 Z1T       0.035700
    124 H421         2.9710   -99.5670   -52.0760 hc         1 Z1T       0.031700
    125 H422         3.1290  -100.2030   -50.4240 hc         1 Z1T       0.031700
    126 H423         4.5830   -99.8430   -51.3820 hc         1 Z1T       0.031700
    127 H2O         -3.3620   -90.9990   -57.3710 ho         1 Z1T       0.443000
    128 C19         -1.4490   -94.2120   -55.3160 c          1 Z1T       0.610100
    129 O2          -3.0770   -91.6420   -56.6850 oh         1 Z1T      -0.643000
@<TRIPOS>BOND
     1     1     4 1   
     2     1    45 1   
     3     1    46 1   
     4     1    47 1   
     5     2    19 1   
     6     2    48 1   
     7     2   128 1   
     8     3    18 1   
     9     3    49 1   
    10     4     5 1   
    11     4    50 1   
    12     4    51 1   
    13     5     6 1   
    14     5    52 1   
    15     5    53 1   
    16     6     7 1   
    17     6    54 1   
    18     6    55 1   
    19     7     8 1   
    20     7    56 1   
    21     7    57 1   
    22     8     9 1   
    23     8    58 1   
    24     8    59 1   
    25     9    10 1   
    26     9    60 1   
    27     9    61 1   
    28    10    11 1   
    29    10    62 1   
    30    10    63 1   
    31    11    12 1   
    32    11    64 1   
    33    11    65 1   
    34    12    13 1   
    35    12    66 1   
    36    12    67 1   
    37    13    14 1   
    38    13    68 1   
    39    13    69 1   
    40    14    15 1   
    41    14    70 1   
    42    14    71 1   
    43    15    16 1   
    44    15    72 1   
    45    15    73 1   
    46    16    17 2   
    47    16    74 1   
    48    17    18 1   
    49    17    75 1   
    50    18    19 1   
    51    18    76 1   
    52    19    20 1   
    53    19    77 1   
    54    20    78 1   
    55    20    79 1   
    56    20   129 1   
    57    21   128 2   
    58    22    23 1   
    59    22    80 1   
    60    22    81 1   
    61    22   128 1   
    62    23    24 1   
    63    23    82 1   
    64    23    83 1   
    65    24    25 1   
    66    24    84 1   
    67    24    85 1   
    68    25    26 1   
    69    25    86 1   
    70    25    87 1   
    71    26    27 1   
    72    26    88 1   
    73    26    89 1   
    74    27    28 1   
    75    27    90 1   
    76    27    91 1   
    77    28    29 1   
    78    28    92 1   
    79    28    93 1   
    80    29    30 1   
    81    29    94 1   
    82    29    95 1   
    83    30    31 1   
    84    30    96 1   
    85    30    97 1   
    86    31    32 1   
    87    31    98 1   
    88    31    99 1   
    89    32    33 1   
    90    32   100 1   
    91    32   101 1   
    92    33    34 1   
    93    33   102 1   
    94    33   103 1   
    95    34    35 1   
    96    34   104 1   
    97    34   105 1   
    98    35    36 1   
    99    35   106 1   
   100    35   107 1   
   101    36    37 1   
   102    36   108 1   
   103    36   109 1   
   104    37    38 1   
   105    37   110 1   
   106    37   111 1   
   107    38    39 1   
   108    38   112 1   
   109    38   113 1   
   110    39    40 1   
   111    39   114 1   
   112    39   115 1   
   113    40    41 1   
   114    40   116 1   
   115    40   117 1   
   116    41    42 1   
   117    41   118 1   
   118    41   119 1   
   119    42    43 1   
   120    42   120 1   
   121    42   121 1   
   122    43    44 1   
   123    43   122 1   
   124    43   123 1   
   125    44   124 1   
   126    44   125 1   
   127    44   126 1   
   128   127   129 1   
@<TRIPOS>SUBSTRUCTURE
     1 Z1T         1 TEMP              0 ****  ****    0 ROOT
