@<TRIPOS>MOLECULE
Z1T
  129   128     1     0     0
SMALL
abcg2


@<TRIPOS>ATOM
      1 C1         -12.4970  -100.2840   -44.1700 c3         1 Z1T      -0.088100
      2 N1          -3.3000   -94.4890   -55.4510 ns         1 Z1T      -0.495900
      3 O1          -6.6850   -93.8970   -54.1170 oh         1 Z1T      -0.647000
      4 C2         -11.9860  -101.3010   -45.1810 c3         1 Z1T      -0.074400
      5 C3         -10.6980  -100.8600   -45.8640 c3         1 Z1T      -0.076400
      6 C4         -10.1710  -101.8630   -46.8840 c3         1 Z1T      -0.074400
      7 C5          -8.8970  -101.3930   -47.5750 c3         1 Z1T      -0.075400
      8 C6          -8.3580  -102.3730   -48.6100 c3         1 Z1T      -0.074400
      9 C7          -7.1170  -101.8480   -49.3210 c3         1 Z1T      -0.077400
     10 C8          -6.5670  -102.7960   -50.3830 c3         1 Z1T      -0.072400
     11 C9          -5.3370  -102.2550   -51.1100 c3         1 Z1T      -0.073400
     12 C10         -5.6310  -101.0580   -52.0070 c3         1 Z1T      -0.078400
     13 C11         -4.3770  -100.4630   -52.6370 c3         1 Z1T      -0.076400
     14 C12         -4.6440   -99.3180   -53.6090 c3         1 Z1T      -0.070400
     15 C13         -5.2900   -98.0970   -52.9550 c3         1 Z1T      -0.045200
     16 C14         -5.5630   -96.9900   -53.9200 c2         1 Z1T      -0.200200
     17 C15         -5.2400   -95.7140   -53.7440 c2         1 Z1T      -0.213200
     18 C16         -5.6180   -94.6240   -54.7010 c3         1 Z1T       0.200500
     19 C17         -4.4170   -93.7040   -54.9850 c3         1 Z1T       0.074700
     20 C18         -4.7560   -92.6100   -55.9920 c3         1 Z1T       0.145600
     21 O3          -1.7930   -93.8300   -53.8980 o          1 Z1T      -0.598100
     22 C20         -1.0220   -95.2670   -55.6510 c3         1 Z1T      -0.155400
     23 C21         -0.1730   -96.1300   -54.7250 c3         1 Z1T      -0.064400
     24 C22         -0.9500   -97.2720   -54.0820 c3         1 Z1T      -0.077400
     25 C23         -0.0800   -98.1490   -53.1900 c3         1 Z1T      -0.073400
     26 C24         -0.8410   -99.3210   -52.5860 c3         1 Z1T      -0.077400
     27 C25          0.0150  -100.2130   -51.6970 c3         1 Z1T      -0.076400
     28 C26         -0.7590  -101.4000   -51.1310 c3         1 Z1T      -0.072400
     29 C27          0.0840  -102.3660   -50.3060 c3         1 Z1T      -0.072400
     30 C28          0.6270  -101.7830   -49.0070 c3         1 Z1T      -0.076400
     31 C29          1.3930  -102.8100   -48.1840 c3         1 Z1T      -0.078400
     32 C30          1.9420  -102.2500   -46.8770 c3         1 Z1T      -0.072400
     33 C31          2.5970  -103.2930   -45.9720 c3         1 Z1T      -0.072400
     34 C32          3.7610  -104.0150   -46.6390 c3         1 Z1T      -0.080400
     35 C33          4.5640  -104.9140   -45.7090 c3         1 Z1T      -0.072400
     36 C34          5.7200  -105.6300   -46.4080 c3         1 Z1T      -0.073400
     37 C35          5.2950  -106.7130   -47.4200 c3         1 Z1T      -0.073400
     38 C36          5.7790  -106.4810   -48.8530 c3         1 Z1T      -0.072400
     39 C37          5.0990  -105.3020   -49.5350 c3         1 Z1T      -0.081400
     40 C38          5.5780  -105.0260   -50.9550 c3         1 Z1T      -0.071400
     41 C39          4.7470  -103.9600   -51.6680 c3         1 Z1T      -0.073400
     42 C40          4.7380  -102.6010   -50.9770 c3         1 Z1T      -0.078400
     43 C41          3.9520  -101.5460   -51.7460 c3         1 Z1T      -0.076400
     44 C42          3.9080  -100.2020   -51.0350 c3         1 Z1T      -0.089100
     45 H11        -13.4190  -100.6190   -43.6930 hc         1 Z1T       0.031367
     46 H12        -11.7630  -100.1090   -43.3810 hc         1 Z1T       0.031367
     47 H13        -12.7030   -99.3230   -44.6460 hc         1 Z1T       0.031367
     48 H11N        -3.4350   -95.0330   -56.2890 hn         1 Z1T       0.304500
     49 H1O         -7.1580   -93.4260   -54.8090 ho         1 Z1T       0.439000
     50 H21        -11.8220  -102.2620   -44.6840 hc         1 Z1T       0.036200
     51 H22        -12.7540  -101.4800   -45.9400 hc         1 Z1T       0.036200
     52 H31        -10.8650   -99.8960   -46.3590 hc         1 Z1T       0.036700
     53 H32         -9.9300  -100.6800   -45.1040 hc         1 Z1T       0.036700
     54 H41         -9.9860  -102.8230   -46.3900 hc         1 Z1T       0.036700
     55 H42        -10.9430  -102.0520   -47.6380 hc         1 Z1T       0.036700
     56 H51         -9.0890  -100.4300   -48.0600 hc         1 Z1T       0.037200
     57 H52         -8.1250  -101.2030   -46.8210 hc         1 Z1T       0.037200
     58 H61         -8.1310  -103.3300   -48.1270 hc         1 Z1T       0.036700
     59 H62         -9.1370  -102.5830   -49.3510 hc         1 Z1T       0.036700
     60 H71         -7.3600  -100.8820   -49.7720 hc         1 Z1T       0.038200
     61 H72         -6.3340  -101.6480   -48.5810 hc         1 Z1T       0.038200
     62 H81         -6.3160  -103.7500   -49.9090 hc         1 Z1T       0.037200
     63 H82         -7.3510  -103.0170   -51.1160 hc         1 Z1T       0.037200
     64 H91         -4.5740  -101.9800   -50.3720 hc         1 Z1T       0.037200
     65 H92         -4.8930  -103.0520   -51.7160 hc         1 Z1T       0.037200
     66 H101        -6.3290  -101.3590   -52.7960 hc         1 Z1T       0.038700
     67 H102        -6.1460  -100.2870   -51.4280 hc         1 Z1T       0.038700
     68 H111        -3.7100  -100.1150   -51.8420 hc         1 Z1T       0.038700
     69 H112        -3.8280  -101.2510   -53.1620 hc         1 Z1T       0.038700
     70 H121        -3.7040   -99.0150   -54.0780 hc         1 Z1T       0.038700
     71 H122        -5.2880   -99.6740   -54.4220 hc         1 Z1T       0.038700
     72 H131        -6.2430   -98.3940   -52.5040 hc         1 Z1T       0.050700
     73 H132        -4.6610   -97.7370   -52.1340 hc         1 Z1T       0.050700
     74 H141        -6.0970   -97.2730   -54.8270 ha         1 Z1T       0.159000
     75 H151        -4.7070   -95.4100   -52.8440 ha         1 Z1T       0.191000
     76 H161        -5.9380   -95.0850   -55.6480 h1         1 Z1T       0.023700
     77 H171        -4.1200   -93.2370   -54.0430 h1         1 Z1T       0.111700
     78 H181        -5.5950   -92.0170   -55.6090 h1         1 Z1T       0.016200
     79 H182        -5.0910   -93.0790   -56.9280 h1         1 Z1T       0.016200
     80 H201        -1.4790   -95.8900   -56.4240 hc         1 Z1T       0.055200
     81 H202        -0.3820   -94.5490   -56.1720 hc         1 Z1T       0.055200
     82 H211         0.6570   -96.5430   -55.3050 hc         1 Z1T       0.050700
     83 H212         0.2790   -95.5040   -53.9520 hc         1 Z1T       0.050700
     84 H221        -1.7840   -96.8770   -53.4920 hc         1 Z1T       0.039200
     85 H222        -1.4010   -97.8890   -54.8670 hc         1 Z1T       0.039200
     86 H231         0.7690   -98.5270   -53.7690 hc         1 Z1T       0.038700
     87 H232         0.3490   -97.5380   -52.3880 hc         1 Z1T       0.038700
     88 H241        -1.6910   -98.9420   -52.0070 hc         1 Z1T       0.036200
     89 H242        -1.2730   -99.9240   -53.3930 hc         1 Z1T       0.036200
     90 H251         0.8720  -100.5830   -52.2710 hc         1 Z1T       0.039200
     91 H252         0.4330   -99.6110   -50.8840 hc         1 Z1T       0.039200
     92 H261        -1.5940  -101.0330   -50.5230 hc         1 Z1T       0.036200
     93 H262        -1.2130  -101.9480   -51.9630 hc         1 Z1T       0.036200
     94 H271        -0.5190  -103.2480   -50.0680 hc         1 Z1T       0.037200
     95 H272         0.9190  -102.7290   -50.9160 hc         1 Z1T       0.037200
     96 H281         1.2830  -100.9330   -49.2210 hc         1 Z1T       0.038200
     97 H282        -0.2030  -101.3850   -48.4130 hc         1 Z1T       0.038200
     98 H291         0.7370  -103.6610   -47.9680 hc         1 Z1T       0.038200
     99 H292         2.2100  -103.2070   -48.7960 hc         1 Z1T       0.038200
    100 H301         2.6710  -101.4620   -47.1020 hc         1 Z1T       0.037200
    101 H302         1.1290  -101.7630   -46.3290 hc         1 Z1T       0.037200
    102 H311         2.9460  -102.8000   -45.0590 hc         1 Z1T       0.037200
    103 H312         1.8470  -104.0250   -45.6540 hc         1 Z1T       0.037200
    104 H321         3.3850  -104.6080   -47.4740 hc         1 Z1T       0.039200
    105 H322         4.4360  -103.2710   -47.0800 hc         1 Z1T       0.039200
    106 H331         4.9590  -104.3120   -44.8840 hc         1 Z1T       0.036700
    107 H332         3.9010  -105.6570   -45.2500 hc         1 Z1T       0.036700
    108 H341         6.3480  -104.8800   -46.9030 hc         1 Z1T       0.037700
    109 H342         6.3590  -106.0830   -45.6460 hc         1 Z1T       0.037700
    110 H351         5.6640  -107.6840   -47.0830 hc         1 Z1T       0.037700
    111 H352         4.2030  -106.8060   -47.4310 hc         1 Z1T       0.037700
    112 H361         6.8650  -106.3320   -48.8500 hc         1 Z1T       0.036200
    113 H362         5.6010  -107.3860   -49.4430 hc         1 Z1T       0.036200
    114 H371         4.0170  -105.4800   -49.5510 hc         1 Z1T       0.039700
    115 H372         5.2430  -104.4040   -48.9300 hc         1 Z1T       0.039700
    116 H381         6.6290  -104.7190   -50.9330 hc         1 Z1T       0.036700
    117 H382         5.5450  -105.9520   -51.5390 hc         1 Z1T       0.036700
    118 H391         5.1210  -103.8380   -52.6900 hc         1 Z1T       0.035700
    119 H392         3.7150  -104.3180   -51.7650 hc         1 Z1T       0.035700
    120 H401         4.3090  -102.6920   -49.9740 hc         1 Z1T       0.038700
    121 H402         5.7690  -102.2560   -50.8350 hc         1 Z1T       0.038700
    122 H411         4.3860  -101.4210   -52.7430 hc         1 Z1T       0.035700
    123 H412         2.9310  -101.9070   -51.9050 hc         1 Z1T       0.035700
    124 H421         3.3300   -99.4690   -51.5990 hc         1 Z1T       0.031700
    125 H422         3.4490  -100.2940   -50.0480 hc         1 Z1T       0.031700
    126 H423         4.9110   -99.7950   -50.8940 hc         1 Z1T       0.031700
    127 H2O         -3.8330   -91.1340   -56.8380 ho         1 Z1T       0.443000
    128 C19         -2.0690   -94.4630   -54.9080 c          1 Z1T       0.610100
    129 O2          -3.6160   -91.8110   -56.1900 oh         1 Z1T      -0.643000
@<TRIPOS>BOND
     1     1     4 1   
     2     1    45 1   
     3     1    46 1   
     4     1    47 1   
     5     2    19 1   
     6     2    48 1   
     7     2   128 1   
     8     3    18 1   
     9     3    49 1   
    10     4     5 1   
    11     4    50 1   
    12     4    51 1   
    13     5     6 1   
    14     5    52 1   
    15     5    53 1   
    16     6     7 1   
    17     6    54 1   
    18     6    55 1   
    19     7     8 1   
    20     7    56 1   
    21     7    57 1   
    22     8     9 1   
    23     8    58 1   
    24     8    59 1   
    25     9    10 1   
    26     9    60 1   
    27     9    61 1   
    28    10    11 1   
    29    10    62 1   
    30    10    63 1   
    31    11    12 1   
    32    11    64 1   
    33    11    65 1   
    34    12    13 1   
    35    12    66 1   
    36    12    67 1   
    37    13    14 1   
    38    13    68 1   
    39    13    69 1   
    40    14    15 1   
    41    14    70 1   
    42    14    71 1   
    43    15    16 1   
    44    15    72 1   
    45    15    73 1   
    46    16    17 2   
    47    16    74 1   
    48    17    18 1   
    49    17    75 1   
    50    18    19 1   
    51    18    76 1   
    52    19    20 1   
    53    19    77 1   
    54    20    78 1   
    55    20    79 1   
    56    20   129 1   
    57    21   128 2   
    58    22    23 1   
    59    22    80 1   
    60    22    81 1   
    61    22   128 1   
    62    23    24 1   
    63    23    82 1   
    64    23    83 1   
    65    24    25 1   
    66    24    84 1   
    67    24    85 1   
    68    25    26 1   
    69    25    86 1   
    70    25    87 1   
    71    26    27 1   
    72    26    88 1   
    73    26    89 1   
    74    27    28 1   
    75    27    90 1   
    76    27    91 1   
    77    28    29 1   
    78    28    92 1   
    79    28    93 1   
    80    29    30 1   
    81    29    94 1   
    82    29    95 1   
    83    30    31 1   
    84    30    96 1   
    85    30    97 1   
    86    31    32 1   
    87    31    98 1   
    88    31    99 1   
    89    32    33 1   
    90    32   100 1   
    91    32   101 1   
    92    33    34 1   
    93    33   102 1   
    94    33   103 1   
    95    34    35 1   
    96    34   104 1   
    97    34   105 1   
    98    35    36 1   
    99    35   106 1   
   100    35   107 1   
   101    36    37 1   
   102    36   108 1   
   103    36   109 1   
   104    37    38 1   
   105    37   110 1   
   106    37   111 1   
   107    38    39 1   
   108    38   112 1   
   109    38   113 1   
   110    39    40 1   
   111    39   114 1   
   112    39   115 1   
   113    40    41 1   
   114    40   116 1   
   115    40   117 1   
   116    41    42 1   
   117    41   118 1   
   118    41   119 1   
   119    42    43 1   
   120    42   120 1   
   121    42   121 1   
   122    43    44 1   
   123    43   122 1   
   124    43   123 1   
   125    44   124 1   
   126    44   125 1   
   127    44   126 1   
   128   127   129 1   
@<TRIPOS>SUBSTRUCTURE
     1 Z1T         1 TEMP              0 ****  ****    0 ROOT
