@<TRIPOS>MOLECULE
Z1Z
   58    60     1     0     0
SMALL
abcg2


@<TRIPOS>ATOM
      1 C10         -1.3650    17.3640   -12.6000 c6         1 Z1Z       0.098000
      2 C11         -1.4320    17.7890   -14.0600 c6         1 Z1Z      -0.152700
      3 C12         -2.7330    17.3460   -14.6970 c          1 Z1Z       0.610100
      4 C15         -3.6330    16.7920   -16.9510 ca         1 Z1Z       0.012000
      5 C16         -4.9720    16.6000   -16.6090 ca         1 Z1Z      -0.175000
      6 C17         -5.8700    16.2540   -17.5980 ca         1 Z1Z       0.211000
      7 C19         -5.4950    16.0870   -18.9180 ca         1 Z1Z       0.037000
      8 C21         -4.1650    16.2810   -19.2550 ca         1 Z1Z      -0.047000
      9 C22         -3.2460    16.6310   -18.2850 ca         1 Z1Z      -0.184000
     10 C23         -1.2930    19.3140   -14.1620 c6         1 Z1Z      -0.072400
     11 C24         -0.0300    19.7900   -13.4500 c6         1 Z1Z      -0.074700
     12 C25          0.0380    21.3070   -13.4890 c3         1 Z1Z       0.167600
     13 C27          0.0140    19.2650   -12.0170 c6         1 Z1Z       0.094000
     14 C29          0.8190    15.1130   -12.3190 c6         1 Z1Z       0.089000
     15 C30         -0.0270    13.8480   -12.3990 c6         1 Z1Z       0.089000
     16 C02         -0.8990    11.5180    -9.5110 c3         1 Z1Z       0.070800
     17 C05          1.0660    13.5620   -10.2230 c6         1 Z1Z       0.089000
     18 C06          0.9480    15.0420    -9.8780 c6         1 Z1Z       0.089000
     19 F18         -7.1500    16.0730   -17.2650 f          1 Z1Z      -0.157000
     20 N01          0.2620    10.6470    -9.4160 n8         1 Z1Z      -1.003200
     21 N04          0.0020    13.1570   -11.1180 n          1 Z1Z      -0.394800
     22 N07          0.5710    15.7970   -11.0650 n          1 Z1Z      -0.415800
     23 N09         -0.1100    17.8180   -12.0170 n          1 Z1Z      -0.412800
     24 N14         -2.6390    17.1400   -16.0400 ns         1 Z1Z      -0.146000
     25 O13         -3.7630    17.2170   -14.0630 o          1 Z1Z      -0.563100
     26 O26          1.2610    21.7380   -12.9340 oh         1 Z1Z      -0.659000
     27 O28          0.7430    17.7190    -9.8970 o          1 Z1Z      -0.616100
     28 O31         -1.7790    11.9220   -11.6950 o          1 Z1Z      -0.607100
     29 CL1         -6.6670    15.6420   -20.0990 cl         1 Z1Z      -0.168000
     30 H1          -2.2050    17.8060   -12.0500 h1         1 Z1Z       0.063700
     31 H2          -1.4630    16.2850   -12.5060 h1         1 Z1Z       0.063700
     32 H3          -0.5920    17.3310   -14.5940 hc         1 Z1Z       0.064700
     33 H4          -5.3270    16.7120   -15.5970 ha         1 Z1Z       0.170000
     34 H5          -3.8440    16.1580   -20.2800 ha         1 Z1Z       0.132000
     35 H6          -2.2110    16.7790   -18.5700 ha         1 Z1Z       0.117000
     36 H7          -1.2710    19.6240   -15.2100 hc         1 Z1Z       0.051700
     37 H8          -2.1710    19.7850   -13.7070 hc         1 Z1Z       0.051700
     38 H9           0.8370    19.3870   -13.9880 hc         1 Z1Z       0.068700
     39 H10         -0.0670    21.6390   -14.5310 h1         1 Z1Z       0.020700
     40 H11         -0.8210    21.7150   -12.9380 h1         1 Z1Z       0.020700
     41 H12          0.9550    19.5430   -11.5480 h1         1 Z1Z       0.062700
     42 H13         -0.7950    19.7300   -11.4340 h1         1 Z1Z       0.062700
     43 H14          0.5930    15.7560   -13.1650 h1         1 Z1Z       0.055200
     44 H15          1.8850    14.8720   -12.4050 h1         1 Z1Z       0.055200
     45 H16         -1.0580    14.1070   -12.6420 h1         1 Z1Z       0.061700
     46 H17          0.3480    13.2090   -13.2050 h1         1 Z1Z       0.061700
     47 H18         -0.8520    12.2540    -8.7060 h1         1 Z1Z       0.055200
     48 H19         -1.8590    11.0010    -9.4080 h1         1 Z1Z       0.055200
     49 H20          2.0300    13.3500   -10.6930 h1         1 Z1Z       0.061700
     50 H21          1.0490    12.9770    -9.3110 h1         1 Z1Z       0.061700
     51 H22          1.9020    15.3800    -9.4620 h1         1 Z1Z       0.055200
     52 H23          0.1870    15.1800    -9.1070 h1         1 Z1Z       0.055200
     53 H24          0.3160    10.2650    -8.4810 hn         1 Z1Z       0.404500
     54 H25          0.1450     9.8550   -10.0350 hn         1 Z1Z       0.404500
     55 H27         -1.7200    17.2580   -16.4410 hn         1 Z1Z       0.153000
     56 H28          1.2500    22.6980   -12.8930 ho         1 Z1Z       0.447000
     57 C08          0.4180    17.1460   -10.9280 c          1 Z1Z       0.651100
     58 C03         -0.9320    12.2190   -10.8620 c          1 Z1Z       0.606100
@<TRIPOS>BOND
     1     1     2 1   
     2     1    23 1   
     3     1    30 1   
     4     1    31 1   
     5     2     3 1   
     6     2    10 1   
     7     2    32 1   
     8     3    24 1   
     9     3    25 2   
    10     4     5 ar  
    11     4     9 ar  
    12     4    24 1   
    13     5     6 ar  
    14     5    33 1   
    15     6     7 ar  
    16     6    19 1   
    17     7     8 ar  
    18     7    29 1   
    19     8     9 ar  
    20     8    34 1   
    21     9    35 1   
    22    10    11 1   
    23    10    36 1   
    24    10    37 1   
    25    11    12 1   
    26    11    13 1   
    27    11    38 1   
    28    12    26 1   
    29    12    39 1   
    30    12    40 1   
    31    13    23 1   
    32    13    41 1   
    33    13    42 1   
    34    14    15 1   
    35    14    22 1   
    36    14    43 1   
    37    14    44 1   
    38    15    21 1   
    39    15    45 1   
    40    15    46 1   
    41    16    20 1   
    42    16    47 1   
    43    16    48 1   
    44    16    58 1   
    45    17    18 1   
    46    17    21 1   
    47    17    49 1   
    48    17    50 1   
    49    18    22 1   
    50    18    51 1   
    51    18    52 1   
    52    20    53 1   
    53    20    54 1   
    54    21    58 1   
    55    22    57 1   
    56    23    57 1   
    57    24    55 1   
    58    26    56 1   
    59    27    57 2   
    60    28    58 2   
@<TRIPOS>SUBSTRUCTURE
     1 Z1Z         1 TEMP              0 ****  ****    0 ROOT
