@<TRIPOS>MOLECULE
Z1Z
   58    60     1     0     0
SMALL
No Charge or Current Charge


@<TRIPOS>ATOM
      1 C10         -1.4080    17.7520   -12.6760 c6         1 Z1Z       0.098000
      2 C11         -1.5430    18.3680   -14.0850 c6         1 Z1Z      -0.152700
      3 C12         -2.8680    17.9830   -14.7730 c          1 Z1Z       0.610100
      4 C15         -3.6890    16.6390   -16.8060 ca         1 Z1Z       0.012000
      5 C16         -5.0850    16.8130   -16.6740 ca         1 Z1Z      -0.175000
      6 C17         -5.9620    16.2260   -17.6020 ca         1 Z1Z       0.211000
      7 C19         -5.4620    15.4610   -18.6710 ca         1 Z1Z       0.037000
      8 C21         -4.0770    15.2840   -18.8080 ca         1 Z1Z      -0.047000
      9 C22         -3.1980    15.8710   -17.8790 ca         1 Z1Z      -0.184000
     10 C23         -1.2430    19.8850   -14.1210 c6         1 Z1Z      -0.072400
     11 C24          0.1340    20.1680   -13.4740 c6         1 Z1Z      -0.074700
     12 C25          0.4440    21.6910   -13.4580 c3         1 Z1Z       0.167600
     13 C27          0.2140    19.5430   -12.0530 c6         1 Z1Z       0.094000
     14 C29          0.5180    15.1840   -12.3040 c6         1 Z1Z       0.089000
     15 C30         -0.3390    13.8950   -12.3700 c6         1 Z1Z       0.089000
     16 C02         -0.6500    10.8170    -9.8880 c3         1 Z1Z       0.070800
     17 C05          0.6600    13.5390   -10.0790 c6         1 Z1Z       0.089000
     18 C06          0.4920    15.0610    -9.8060 c6         1 Z1Z       0.089000
     19 F18         -7.2950    16.4060   -17.4560 f          1 Z1Z      -0.157000
     20 N01          0.6880    10.1740    -9.6190 n8         1 Z1Z      -1.003200
     21 N04         -0.2340    13.0260   -11.1600 n          1 Z1Z      -0.394800
     22 N07          0.3270    15.9100   -11.0190 n          1 Z1Z      -0.415800
     23 N09         -0.1070    18.0850   -12.0190 n          1 Z1Z      -0.412800
     24 N14         -2.7360    17.1970   -15.9110 ns         1 Z1Z      -0.146000
     25 O13         -3.9410    18.3600   -14.3170 o          1 Z1Z      -0.563100
     26 O26          1.7700    21.9640   -12.9910 oh         1 Z1Z      -0.659000
     27 O28          0.6820    17.8630    -9.8820 o          1 Z1Z      -0.616100
     28 O31         -1.3480    11.2920   -12.1690 o          1 Z1Z      -0.607100
     29 Cl1         -6.5540    14.7200   -19.8420 cl         1 Z1Z      -0.168000
     30 H1          -2.2160    18.1490   -12.0430 h1         1 Z1Z       0.063700
     31 H2          -1.5710    16.6690   -12.7280 h1         1 Z1Z       0.063700
     32 H3          -0.7540    17.8950   -14.6870 hc         1 Z1Z       0.064700
     33 H4          -5.5150    17.3940   -15.8660 ha         1 Z1Z       0.170000
     34 H5          -3.6840    14.6930   -19.6330 ha         1 Z1Z       0.132000
     35 H6          -2.1270    15.7250   -17.9980 ha         1 Z1Z       0.117000
     36 H7          -1.2570    20.2490   -15.1580 hc         1 Z1Z       0.051700
     37 H8          -2.0300    20.4330   -13.5830 hc         1 Z1Z       0.051700
     38 H9           0.9100    19.7020   -14.0970 hc         1 Z1Z       0.068700
     39 H10          0.3220    22.0820   -14.4770 h1         1 Z1Z       0.020700
     40 H11         -0.2950    22.1950   -12.8190 h1         1 Z1Z       0.020700
     41 H12          1.2270    19.6950   -11.6560 h1         1 Z1Z       0.062700
     42 H13         -0.4790    20.0720   -11.3830 h1         1 Z1Z       0.062700
     43 H14          0.3120    15.8180   -13.1750 h1         1 Z1Z       0.055200
     44 H15          1.5790    14.9030   -12.3810 h1         1 Z1Z       0.055200
     45 H16         -1.3920    14.1800   -12.4990 h1         1 Z1Z       0.061700
     46 H17         -0.0450    13.3220   -13.2600 h1         1 Z1Z       0.061700
     47 H18         -0.9380    11.4240    -9.0190 h1         1 Z1Z       0.055200
     48 H19         -1.4020    10.0200    -9.9820 h1         1 Z1Z       0.055200
     49 H20          1.7000    13.3470   -10.3780 h1         1 Z1Z       0.061700
     50 H21          0.4990    13.0050    -9.1340 h1         1 Z1Z       0.061700
     51 H22          1.3550    15.4120    -9.2230 h1         1 Z1Z       0.055200
     52 H23         -0.3990    15.2000    -9.1770 h1         1 Z1Z       0.055200
     53 H24          0.6130     9.5510    -8.8030 hn         1 Z1Z       0.404500
     54 H25          0.9200     9.5310   -10.3890 hn         1 Z1Z       0.404500
     55 H27         -1.7780    16.9790   -16.1510 hn         1 Z1Z       0.153000
     56 H28          1.8920    22.9390   -13.0310 ho         1 Z1Z       0.447000
     57 C08          0.3190    17.3180   -10.9150 c          1 Z1Z       0.651100
     58 C03         -0.7730    11.7150   -11.1700 c          1 Z1Z       0.606100
@<TRIPOS>BOND
     1     1     2 1   
     2     1    23 1   
     3     1    30 1   
     4     1    31 1   
     5     2     3 1   
     6     2    10 1   
     7     2    32 1   
     8     3    24 1   
     9     3    25 2   
    10     4     5 ar  
    11     4     9 ar  
    12     4    24 1   
    13     5     6 ar  
    14     5    33 1   
    15     6     7 ar  
    16     6    19 1   
    17     7     8 ar  
    18     7    29 1   
    19     8     9 ar  
    20     8    34 1   
    21     9    35 1   
    22    10    11 1   
    23    10    36 1   
    24    10    37 1   
    25    11    12 1   
    26    11    13 1   
    27    11    38 1   
    28    12    26 1   
    29    12    39 1   
    30    12    40 1   
    31    13    23 1   
    32    13    41 1   
    33    13    42 1   
    34    14    15 1   
    35    14    22 1   
    36    14    43 1   
    37    14    44 1   
    38    15    21 1   
    39    15    45 1   
    40    15    46 1   
    41    16    20 1   
    42    16    47 1   
    43    16    48 1   
    44    16    58 1   
    45    17    18 1   
    46    17    21 1   
    47    17    49 1   
    48    17    50 1   
    49    18    22 1   
    50    18    51 1   
    51    18    52 1   
    52    20    53 1   
    53    20    54 1   
    54    21    58 1   
    55    22    57 1   
    56    23    57 1   
    57    24    55 1   
    58    26    56 1   
    59    27    57 2   
    60    28    58 2   
@<TRIPOS>SUBSTRUCTURE
     1 Z1Z         1 TEMP              0 ****  ****    0 ROOT
