@<TRIPOS>MOLECULE
Z20
   35    37     1     0     0
SMALL
abcg2


@<TRIPOS>ATOM
      1 O24        -44.5560    -0.8120     2.3320 o          1 Z20      -0.406500
      2 N22        -43.4870    -1.1670     1.8570 no         1 Z20       0.706200
      3 O23        -42.4880    -1.2830     2.5180 o          1 Z20      -0.406500
      4 C18        -43.4370    -1.4570     0.4480 ca         1 Z20      -0.307200
      5 C17        -44.5920    -1.3430    -0.3520 ca         1 Z20       0.258100
      6 O25        -45.7820    -0.9700     0.0740 oh         1 Z20      -0.510100
      7 C16        -44.4610    -1.6560    -1.7110 ca         1 Z20      -0.181000
      8 C15        -43.2550    -2.0500    -2.2290 ca         1 Z20       0.000000
      9 C19        -42.2160    -1.8530    -0.0890 ca         1 Z20       0.021000
     10 C14        -42.0950    -2.1520    -1.4360 ca         1 Z20      -0.126800
     11 C13        -40.8720    -2.5740    -2.0910 ce         1 Z20      -0.046200
     12 C11        -39.6090    -2.6300    -1.6440 cd         1 Z20      -0.115600
     13 C10        -38.5130    -3.1060    -2.5240 c          1 Z20       0.587200
     14 O21        -38.6330    -3.4900    -3.6640 o          1 Z20      -0.496000
     15 N9         -37.3260    -3.0440    -1.8480 ns         1 Z20      -0.425400
     16 S12        -38.9840    -2.1770    -0.0710 ss         1 Z20      -0.201800
     17 C8         -37.3290    -2.5810    -0.5630 cc         1 Z20       0.547800
     18 N7         -36.2870    -2.4550     0.1340 nf         1 Z20      -0.600100
     19 C2         -36.3810    -2.0140     1.4510 ca         1 Z20       0.148400
     20 C3         -35.8050    -0.7990     1.8250 ca         1 Z20       0.125000
     21 CL1        -35.0450     0.1740     0.6140 cl         1 Z20      -0.185000
     22 C4         -35.8400    -0.3570     3.1370 ca         1 Z20      -0.094000
     23 C5         -36.4560    -1.1360     4.1060 ca         1 Z20      -0.103000
     24 C6         -37.0290    -2.3500     3.7570 ca         1 Z20      -0.093000
     25 C1         -36.9910    -2.7860     2.4410 ca         1 Z20      -0.118000
     26 H1         -45.7340    -0.7830     1.0310 ho         1 Z20       0.524000
     27 H2         -45.3330    -1.5820    -2.3460 ha         1 Z20       0.148000
     28 H3         -43.1940    -2.2850    -3.2840 ha         1 Z20       0.130000
     29 H4         -41.3800    -1.9350     0.5890 ha         1 Z20       0.157000
     30 H5         -40.9990    -2.8890    -3.1220 ha         1 Z20       0.203000
     31 H10        -35.3920     0.5920     3.3980 ha         1 Z20       0.132000
     32 H11        -36.4790    -0.7920     5.1320 ha         1 Z20       0.122000
     33 H12        -37.5050    -2.9650     4.5090 ha         1 Z20       0.122000
     34 H13        -37.4170    -3.7440     2.1730 ha         1 Z20       0.125000
     35 H14        -36.4530    -3.3150    -2.2840 hn         1 Z20       0.361500
@<TRIPOS>BOND
     1     1     2 1   
     2     2     3 1   
     3     2     4 1   
     4     4     5 ar  
     5     4     9 ar  
     6     5     6 1   
     7     5     7 ar  
     8     6    26 1   
     9     7     8 ar  
    10     7    27 1   
    11     8    10 ar  
    12     8    28 1   
    13     9    10 ar  
    14     9    29 1   
    15    10    11 1   
    16    11    12 2   
    17    11    30 1   
    18    12    13 1   
    19    12    16 1   
    20    13    14 2   
    21    13    15 1   
    22    15    17 1   
    23    15    35 1   
    24    16    17 1   
    25    17    18 2   
    26    18    19 1   
    27    19    20 ar  
    28    19    25 ar  
    29    20    21 1   
    30    20    22 ar  
    31    22    23 ar  
    32    22    31 1   
    33    23    24 ar  
    34    23    32 1   
    35    24    25 ar  
    36    24    33 1   
    37    25    34 1   
@<TRIPOS>SUBSTRUCTURE
     1 Z20         1 TEMP              0 ****  ****    0 ROOT
