@<TRIPOS>MOLECULE
Z20
   35    37     1     0     0
SMALL
No Charge or Current Charge


@<TRIPOS>ATOM
      1 O24        -44.6980    -1.5340     2.4830 o          1 Z20      -0.406500
      2 N22        -43.7210    -2.0640     1.9380 no         1 Z20       0.706200
      3 O23        -42.9370    -2.8150     2.5310 o          1 Z20      -0.406500
      4 C18        -43.4710    -1.7800     0.4880 ca         1 Z20      -0.307200
      5 C17        -44.3090    -0.9330    -0.2790 ca         1 Z20       0.258100
      6 O25        -45.4000    -0.3110     0.2480 oh         1 Z20      -0.510100
      7 C16        -44.0320    -0.7120    -1.6350 ca         1 Z20      -0.181000
      8 C15        -42.9260    -1.3150    -2.2500 ca         1 Z20       0.000000
      9 C19        -42.3560    -2.3850    -0.1450 ca         1 Z20       0.021000
     10 C14        -42.0740    -2.1460    -1.5040 ca         1 Z20      -0.126800
     11 C13        -40.9070    -2.7870    -2.1770 ce         1 Z20      -0.046200
     12 C11        -39.6030    -2.9140    -1.7430 cd         1 Z20      -0.115600
     13 C10        -38.5080    -3.5310    -2.5270 c          1 Z20       0.587200
     14 O21        -38.5790    -4.0370    -3.6360 o          1 Z20      -0.496000
     15 N9         -37.3770    -3.4390    -1.7900 ns         1 Z20      -0.425400
     16 S12        -39.0550    -2.2810    -0.1740 ss         1 Z20      -0.201800
     17 C8         -37.4370    -2.8420    -0.5780 cc         1 Z20       0.547800
     18 N7         -36.4560    -2.6700     0.2450 nf         1 Z20      -0.600100
     19 C2         -36.4670    -2.0010     1.4970 ca         1 Z20       0.148400
     20 C3         -36.3560    -0.5920     1.5860 ca         1 Z20       0.125000
     21 Cl1        -36.1960     0.4070     0.1370 cl         1 Z20      -0.185000
     22 C4         -36.3780     0.0360     2.8440 ca         1 Z20      -0.094000
     23 C5         -36.5070    -0.7320     4.0150 ca         1 Z20      -0.103000
     24 C6         -36.6150    -2.1300     3.9290 ca         1 Z20      -0.093000
     25 C1         -36.5940    -2.7620     2.6730 ca         1 Z20      -0.118000
     26 H1         -45.4540    -0.5740     1.1960 ho         1 Z20       0.524000
     27 H2         -44.6830    -0.0650    -2.2160 ha         1 Z20       0.148000
     28 H3         -42.7270    -1.1300    -3.3030 ha         1 Z20       0.130000
     29 H4         -41.7050    -3.0590     0.4100 ha         1 Z20       0.157000
     30 H5         -41.1070    -3.1670    -3.1810 ha         1 Z20       0.203000
     31 H10        -36.2940     1.1180     2.9100 ha         1 Z20       0.132000
     32 H11        -36.5230    -0.2430     4.9870 ha         1 Z20       0.122000
     33 H12        -36.7150    -2.7240     4.8350 ha         1 Z20       0.122000
     34 H13        -36.6790    -3.8440     2.6110 ha         1 Z20       0.125000
     35 H14        -36.5120    -3.8070    -2.1540 hn         1 Z20       0.361500
@<TRIPOS>BOND
     1     1     2 1   
     2     2     3 1   
     3     2     4 1   
     4     4     5 ar  
     5     4     9 ar  
     6     5     6 1   
     7     5     7 ar  
     8     6    26 1   
     9     7     8 ar  
    10     7    27 1   
    11     8    10 ar  
    12     8    28 1   
    13     9    10 ar  
    14     9    29 1   
    15    10    11 1   
    16    11    12 2   
    17    11    30 1   
    18    12    13 1   
    19    12    16 1   
    20    13    14 2   
    21    13    15 1   
    22    15    17 1   
    23    15    35 1   
    24    16    17 1   
    25    17    18 2   
    26    18    19 1   
    27    19    20 ar  
    28    19    25 ar  
    29    20    21 1   
    30    20    22 ar  
    31    22    23 ar  
    32    22    31 1   
    33    23    24 ar  
    34    23    32 1   
    35    24    25 ar  
    36    24    33 1   
    37    25    34 1   
@<TRIPOS>SUBSTRUCTURE
     1 Z20         1 TEMP              0 ****  ****    0 ROOT
