@<TRIPOS>MOLECULE
Z21
   27    29     1     0     0
SMALL
abcg2


@<TRIPOS>ATOM
      1 BR          -4.3760     0.0730    -0.0470 br         1 Z21      -0.152200
      2 C           -2.5380    -0.3910    -0.0030 ca         1 Z21       0.412200
      3 C1          -1.6040     0.6180    -0.1380 ca         1 Z21      -0.129000
      4 C2          -0.2880     0.1750    -0.0920 ca         1 Z21      -0.054200
      5 N2           0.9080     0.8170    -0.1940 na         1 Z21      -0.145600
      6 C6           1.0760     2.2580    -0.3330 c3         1 Z21       0.078600
      7 C7           1.2610     2.9510     1.0040 c3         1 Z21      -0.113100
      8 C5           1.8630    -0.1550    -0.0680 cc         1 Z21       0.379800
      9 N1           1.3710    -1.3550     0.0900 nd         1 Z21      -0.574100
     10 C3           0.0180    -1.1830     0.0800 ca         1 Z21       0.020400
     11 C4          -1.0280    -2.0910     0.2000 ca         1 Z21       0.412900
     12 N           -2.2830    -1.6810     0.1570 nb         1 Z21      -0.659000
     13 C8           3.2940     0.0560    -0.0990 cc         1 Z21       0.184700
     14 C9           4.3050    -0.9660    -0.0520 cc         1 Z21       0.516900
     15 N5           4.1220    -2.2980    -0.0420 nv         1 Z21      -1.040900
     16 N4           5.4620    -0.3670    -0.0750 nd         1 Z21      -0.437300
     17 O            5.1910     0.9640    -0.1380 os         1 Z21       0.118600
     18 N3           3.8900     1.2050    -0.1480 nd         1 Z21      -0.316300
     19 H1          -1.8790     1.6550    -0.2690 ha         1 Z21       0.146000
     20 H61C         1.9170     2.4460    -0.9950 h1         1 Z21       0.071700
     21 H62C         0.1880     2.6320    -0.8410 h1         1 Z21       0.071700
     22 H71C         2.1550     2.5990     1.5170 hc         1 Z21       0.053700
     23 H72C         1.3690     4.0230     0.8410 hc         1 Z21       0.053700
     24 H73C         0.4020     2.7950     1.6560 hc         1 Z21       0.053700
     25 H4          -0.8490    -3.1520     0.3300 h4         1 Z21       0.041100
     26 H51N         3.2050    -2.6240     0.2210 hn         1 Z21       0.502500
     27 H52N         4.8990    -2.8770     0.2320 hn         1 Z21       0.502500
@<TRIPOS>BOND
     1     1     2 1   
     2     2     3 ar  
     3     2    12 ar  
     4     3     4 ar  
     5     3    19 1   
     6     4     5 1   
     7     4    10 ar  
     8     5     6 1   
     9     5     8 1   
    10     6     7 1   
    11     6    20 1   
    12     6    21 1   
    13     7    22 1   
    14     7    23 1   
    15     7    24 1   
    16     8     9 2   
    17     8    13 1   
    18     9    10 1   
    19    10    11 ar  
    20    11    12 ar  
    21    11    25 1   
    22    13    14 1   
    23    13    18 2   
    24    14    15 1   
    25    14    16 2   
    26    15    26 1   
    27    15    27 1   
    28    16    17 1   
    29    17    18 1   
@<TRIPOS>SUBSTRUCTURE
     1 Z21         1 TEMP              0 ****  ****    0 ROOT
