@<TRIPOS>MOLECULE
Z21
   27    29     1     0     0
SMALL
No Charge or Current Charge


@<TRIPOS>ATOM
      1 Br          -4.4310     0.2050     0.0590 br         1 Z21      -0.152200
      2 C           -2.6010    -0.3450     0.0400 ca         1 Z21       0.412200
      3 C1          -1.5740     0.6150    -0.0750 ca         1 Z21      -0.129000
      4 C2          -0.2570     0.1330    -0.0820 ca         1 Z21      -0.054200
      5 N2           0.9480     0.7700    -0.1740 na         1 Z21      -0.145600
      6 C6           1.0490     2.2360    -0.3450 c3         1 Z21       0.078600
      7 C7           1.1740     2.9870     0.9950 c3         1 Z21      -0.113100
      8 C5           1.9490    -0.2270    -0.0990 cc         1 Z21       0.379800
      9 N1           1.3740    -1.4520     0.0180 nd         1 Z21      -0.574100
     10 C3          -0.0000    -1.2000     0.0280 ca         1 Z21       0.020400
     11 C4          -1.0810    -2.1060     0.1400 ca         1 Z21       0.412900
     12 N           -2.3760    -1.6810     0.1450 nb         1 Z21      -0.659000
     13 C8           3.3730     0.0730    -0.1260 cc         1 Z21       0.184700
     14 C9           4.3630    -0.9400    -0.0590 cc         1 Z21       0.516900
     15 N5           4.1670    -2.2840     0.0100 nv         1 Z21      -1.040900
     16 N4           5.5770    -0.4780    -0.0740 nd         1 Z21      -0.437300
     17 O            5.3500     0.9320    -0.1640 os         1 Z21       0.118600
     18 N3           3.9520     1.2560    -0.1960 nd         1 Z21      -0.316300
     19 H1          -1.8110     1.6720    -0.1510 ha         1 Z21       0.146000
     20 H61C         1.9000     2.4780    -0.9920 h1         1 Z21       0.071700
     21 H62C         0.1560     2.5960    -0.8720 h1         1 Z21       0.071700
     22 H71C         2.0720     2.6690     1.5380 hc         1 Z21       0.053700
     23 H72C         1.2410     4.0670     0.8210 hc         1 Z21       0.053700
     24 H73C         0.3000     2.7930     1.6280 hc         1 Z21       0.053700
     25 H4          -0.9100    -3.1780     0.2290 h4         1 Z21       0.041100
     26 H51N         3.2160    -2.6030     0.1990 hn         1 Z21       0.502500
     27 H52N         4.9300    -2.8600     0.3530 hn         1 Z21       0.502500
@<TRIPOS>BOND
     1     1     2 1   
     2     2     3 ar  
     3     2    12 ar  
     4     3     4 ar  
     5     3    19 1   
     6     4     5 1   
     7     4    10 ar  
     8     5     6 1   
     9     5     8 1   
    10     6     7 1   
    11     6    20 1   
    12     6    21 1   
    13     7    22 1   
    14     7    23 1   
    15     7    24 1   
    16     8     9 2   
    17     8    13 1   
    18     9    10 1   
    19    10    11 ar  
    20    11    12 ar  
    21    11    25 1   
    22    13    14 1   
    23    13    18 2   
    24    14    15 1   
    25    14    16 2   
    26    15    26 1   
    27    15    27 1   
    28    16    17 1   
    29    17    18 1   
@<TRIPOS>SUBSTRUCTURE
     1 Z21         1 TEMP              0 ****  ****    0 ROOT
