@<TRIPOS>MOLECULE
Z22
   12    11     1     0     0
SMALL
No Charge or Current Charge


@<TRIPOS>ATOM
      1 S            1.2670    -0.7250    -0.4950 ss         1 Z22      -0.472900
      2 S2          -0.6760     0.0820     0.0860 s6         1 Z22       0.994900
      3 C            2.3210     0.6330     0.2010 c3         1 Z22       0.116900
      4 O1          -1.6090    -1.0490     0.1410 o          1 Z22      -0.444000
      5 O2          -0.4620     0.9440     1.2530 o          1 Z22      -0.444000
      6 C2          -1.1290     1.1180    -1.3020 c3         1 Z22      -0.314100
      7 H            2.0390     1.5970    -0.2410 h1         1 Z22       0.075700
      8 H2          -1.1690     0.4830    -2.1920 h1         1 Z22       0.112367
      9 H3          -2.1100     1.5540    -1.0820 h1         1 Z22       0.112367
     10 H4          -0.3650     1.8960    -1.4030 h1         1 Z22       0.112367
     11 HA           2.2000     0.6880     1.2910 h1         1 Z22       0.075700
     12 HB           3.3760     0.4350    -0.0260 h1         1 Z22       0.075700
@<TRIPOS>BOND
     1     1     2 1   
     2     1     3 1   
     3     2     4 2   
     4     2     5 2   
     5     2     6 1   
     6     3     7 1   
     7     3    11 1   
     8     3    12 1   
     9     6     8 1   
    10     6     9 1   
    11     6    10 1   
@<TRIPOS>SUBSTRUCTURE
     1 Z22         1 TEMP              0 ****  ****    0 ROOT
