@<TRIPOS>MOLECULE
Z22
   12    11     1     0     0
SMALL
bcc


@<TRIPOS>ATOM
      1 S            1.2110    -0.7270    -0.3430 ss         1 Z22      -0.425000
      2 S2          -0.6730     0.0450     0.1080 s6         1 Z22       1.025700
      3 C            2.2580     0.6660     0.1500 c3         1 Z22       0.069000
      4 O1          -1.5630    -1.1050     0.0540 o          1 Z22      -0.514800
      5 O2          -0.5900     0.8400     1.3250 o          1 Z22      -0.514800
      6 C2          -1.0470     1.1300    -1.2500 c3         1 Z22      -0.203300
      7 H            2.0390     1.5580    -0.4320 h1         1 Z22       0.075700
      8 H2          -1.0600     0.5520    -2.1700 h1         1 Z22       0.112367
      9 H3          -2.0300     1.5600    -1.0560 h1         1 Z22       0.112367
     10 H4          -0.3020     1.9200    -1.3040 h1         1 Z22       0.112367
     11 HA           2.1630     0.8650     1.2130 h1         1 Z22       0.075700
     12 HB           3.2780     0.3530    -0.0650 h1         1 Z22       0.075700
@<TRIPOS>BOND
     1     1     2 1   
     2     1     3 1   
     3     2     4 2   
     4     2     5 2   
     5     2     6 1   
     6     3     7 1   
     7     3    11 1   
     8     3    12 1   
     9     6     8 1   
    10     6     9 1   
    11     6    10 1   
@<TRIPOS>SUBSTRUCTURE
     1 Z22         1 TEMP              0 ****  ****    0 ROOT
