@<TRIPOS>MOLECULE
Z23
   48    50     1     0     0
SMALL
bcc


@<TRIPOS>ATOM
      1 C1           2.5330    -1.6940     1.5090 ca         1 Z23      -0.095000
      2 C2           3.1110    -1.3910     0.2810 ca         1 Z23      -0.248900
      3 C3           2.8750    -0.1600    -0.3270 ca         1 Z23      -0.089000
      4 C4           2.0710     0.7630     0.3130 ca         1 Z23       0.145100
      5 C5           1.4990     0.4810     1.5460 ca         1 Z23      -0.068000
      6 C6           1.7320    -0.7510     2.1350 ca         1 Z23      -0.109500
      7 O7           1.9130     1.9820    -0.2960 os         1 Z23      -0.334900
      8 C8           0.6690     2.4350    -0.5520 ca         1 Z23       0.612600
      9 N9          -0.3640     1.6450    -0.3980 nb         1 Z23      -0.808000
     10 C10         -1.5690     2.0900    -0.6430 ca         1 Z23       0.612600
     11 C11          0.5260     3.7380    -0.9970 ca         1 Z23       0.033100
     12 C12         -0.7310     4.2440    -1.2900 ca         1 Z23      -0.046300
     13 C13         -1.7970     3.3800    -1.0980 ca         1 Z23       0.033100
     14 O14         -2.6290     1.2750    -0.4650 os         1 Z23      -0.334900
     15 C15         -2.4220     0.1280     0.2640 ca         1 Z23       0.145100
     16 C16         -2.2260     0.1980     1.6360 ca         1 Z23      -0.068000
     17 C17         -2.0500    -0.9710     2.3570 ca         1 Z23      -0.109500
     18 C18         -2.0650    -2.2010     1.7170 ca         1 Z23      -0.095000
     19 C19         -2.2740    -2.2540     0.3430 ca         1 Z23      -0.248900
     20 C20         -2.4510    -1.0850    -0.3940 ca         1 Z23      -0.089000
     21 C21         -2.3100    -3.5560    -0.3440 ce         1 Z23       0.521400
     22 N22         -1.4730    -4.4940     0.0250 nv         1 Z23      -0.465600
     23 C23          3.9900    -2.3700    -0.3810 ce         1 Z23       0.521400
     24 N24          3.7020    -3.6450    -0.3010 nv         1 Z23      -0.465600
     25 N25          5.0440    -1.9440    -1.0310 nv         1 Z23      -0.449700
     26 F26          1.6050     4.5140    -1.1430 f          1 Z23      -0.090900
     27 C27         -0.8990     5.6530    -1.7620 c3         1 Z23      -0.060800
     28 F28         -3.0490     3.7780    -1.3400 f          1 Z23      -0.090900
     29 N38         -3.1770    -3.7460    -1.3060 nv         1 Z23      -0.449700
     30 H29          2.7290    -2.6390     1.9990 ha         1 Z23       0.147500
     31 H30          3.2910     0.0770    -1.2980 ha         1 Z23       0.164500
     32 H31          0.8820     1.2120     2.0510 ha         1 Z23       0.176500
     33 H32          1.2960    -0.9740     3.0980 ha         1 Z23       0.167000
     34 H33         -2.2150     1.1560     2.1390 ha         1 Z23       0.176500
     35 H34         -1.9070    -0.9240     3.4280 ha         1 Z23       0.167000
     36 H35         -1.9480    -3.1070     2.2980 ha         1 Z23       0.147500
     37 H36         -2.5830    -1.1110    -1.4680 ha         1 Z23       0.164500
     38 H39         -0.7380    -4.3020     0.6850 hn         1 Z23       0.330325
     39 H46         -1.4990    -5.4230    -0.3690 hn         1 Z23       0.330325
     40 H40          2.8310    -3.9560     0.0970 hn         1 Z23       0.330325
     41 H48          4.3120    -4.3590    -0.6720 hn         1 Z23       0.330325
     42 H41          5.6480    -2.5700    -1.5440 hn         1 Z23       0.330325
     43 H47          5.3270    -0.9780    -0.9820 hn         1 Z23       0.330325
     44 H42         -0.5530     6.3530    -1.0020 hc         1 Z23       0.080700
     45 H43         -0.3130     5.8310    -2.6630 hc         1 Z23       0.080700
     46 H44         -1.9360     5.8850    -1.9840 hc         1 Z23       0.080700
     47 H49         -3.2130    -4.6040    -1.8360 hn         1 Z23       0.330325
     48 H50         -3.8960    -3.0650    -1.4930 hn         1 Z23       0.330325
@<TRIPOS>BOND
     1     1     2 ar  
     2     1     6 ar  
     3     1    30 1   
     4     2     3 ar  
     5     2    23 1   
     6     3     4 ar  
     7     3    31 1   
     8     4     5 ar  
     9     4     7 1   
    10     5     6 ar  
    11     5    32 1   
    12     6    33 1   
    13     7     8 1   
    14     8     9 ar  
    15     8    11 ar  
    16     9    10 ar  
    17    10    13 ar  
    18    10    14 1   
    19    11    12 ar  
    20    11    26 1   
    21    12    13 ar  
    22    12    27 1   
    23    13    28 1   
    24    14    15 1   
    25    15    16 ar  
    26    15    20 ar  
    27    16    17 ar  
    28    16    34 1   
    29    17    18 ar  
    30    17    35 1   
    31    18    19 ar  
    32    18    36 1   
    33    19    20 ar  
    34    19    21 1   
    35    20    37 1   
    36    21    22 2   
    37    21    29 1   
    38    22    38 1   
    39    22    39 1   
    40    23    24 2   
    41    23    25 1   
    42    24    40 1   
    43    24    41 1   
    44    25    42 1   
    45    25    43 1   
    46    27    44 1   
    47    27    45 1   
    48    27    46 1   
    49    29    47 1   
    50    29    48 1   
@<TRIPOS>SUBSTRUCTURE
     1 Z23         1 TEMP              0 ****  ****    0 ROOT
