@<TRIPOS>MOLECULE
Z23
   48    50     1     0     0
SMALL
No Charge or Current Charge


@<TRIPOS>ATOM
      1 C1           3.0860    -1.4030     1.6930 ca         1 Z23      -0.077000
      2 C2           3.6510    -1.1840     0.4140 ca         1 Z23      -0.248900
      3 C3           3.2890    -0.0150    -0.2970 ca         1 Z23      -0.071000
      4 C4           2.3810     0.9070     0.2510 ca         1 Z23       0.145100
      5 C5           1.8420     0.6860     1.5320 ca         1 Z23      -0.050000
      6 C6           2.1910    -0.4710     2.2480 ca         1 Z23      -0.091500
      7 O7           2.0650     2.0390    -0.4690 os         1 Z23      -0.334900
      8 C8           0.7700     2.4660    -0.6770 ca         1 Z23       0.547300
      9 N9          -0.2410     1.5760    -0.5320 nb         1 Z23      -0.808000
     10 C10         -1.5070     2.0080    -0.7390 ca         1 Z23       0.547300
     11 C11          0.5530     3.8140    -1.0590 ca         1 Z23       0.133500
     12 C12         -0.7620     4.2700    -1.2940 ca         1 Z23      -0.046300
     13 C13         -1.8090     3.3380    -1.1240 ca         1 Z23       0.133500
     14 O14         -2.5460     1.1120    -0.5950 os         1 Z23      -0.334900
     15 C15         -2.4370    -0.0630     0.1170 ca         1 Z23       0.145100
     16 C16         -1.9220    -0.0750     1.4270 ca         1 Z23      -0.050000
     17 C17         -1.8330    -1.2860     2.1330 ca         1 Z23      -0.091500
     18 C18         -2.2690    -2.4840     1.5410 ca         1 Z23      -0.077000
     19 C19         -2.8070    -2.4850     0.2330 ca         1 Z23      -0.248900
     20 C20         -2.8890    -1.2580    -0.4700 ca         1 Z23      -0.071000
     21 C21         -3.2790    -3.7510    -0.3950 ce         1 Z23       0.521400
     22 N22         -2.6210    -4.9210    -0.1290 nv         1 Z23      -0.566200
     23 C23          4.6070    -2.1650    -0.1730 ce         1 Z23       0.521400
     24 N24          4.4390    -3.5000     0.0730 nv         1 Z23      -0.566200
     25 N25          5.6420    -1.7180    -0.9480 nv         1 Z23      -0.550300
     26 F26          1.6030     4.6620    -1.1940 f          1 Z23      -0.126000
     27 C27         -1.0420     5.7170    -1.7040 c3         1 Z23      -0.060800
     28 F28         -3.0960     3.7160    -1.3220 f          1 Z23      -0.126000
     29 N38         -4.3640    -3.7290    -1.2270 nv         1 Z23      -0.550300
     30 H29          3.3510    -2.2850     2.2740 ha         1 Z23       0.129500
     31 H30          3.6920     0.1810    -1.2890 ha         1 Z23       0.146500
     32 H31          1.1570     1.4070     1.9690 ha         1 Z23       0.158500
     33 H32          1.7710    -0.6440     3.2370 ha         1 Z23       0.149000
     34 H33         -1.5920     0.8500     1.8930 ha         1 Z23       0.158500
     35 H34         -1.4310    -1.2950     3.1440 ha         1 Z23       0.149000
     36 H35         -2.2030    -3.4070     2.1150 ha         1 Z23       0.129500
     37 H36         -3.2850    -1.2210    -1.4820 ha         1 Z23       0.146500
     38 H39         -1.7130    -4.8550     0.3100 hn         1 Z23       0.380625
     39 H46         -2.8000    -5.7230    -0.7170 hn         1 Z23       0.380625
     40 H40          3.5540    -3.7940     0.4630 hn         1 Z23       0.380625
     41 H48          4.9440    -4.1660    -0.4960 hn         1 Z23       0.380625
     42 H41          6.3960    -2.3570    -1.1560 hn         1 Z23       0.380625
     43 H47          5.8620    -0.7320    -0.9170 hn         1 Z23       0.380625
     44 H42         -1.1930     6.3500    -0.8210 hc         1 Z23       0.080700
     45 H43         -0.2140     6.1450    -2.2820 hc         1 Z23       0.080700
     46 H44         -1.9390     5.7980    -2.3290 hc         1 Z23       0.080700
     47 H49         -4.8020    -4.6070    -1.4690 hn         1 Z23       0.380625
     48 H50         -4.9500    -2.9050    -1.2170 hn         1 Z23       0.380625
@<TRIPOS>BOND
     1     1     2 ar  
     2     1     6 ar  
     3     1    30 1   
     4     2     3 ar  
     5     2    23 1   
     6     3     4 ar  
     7     3    31 1   
     8     4     5 ar  
     9     4     7 1   
    10     5     6 ar  
    11     5    32 1   
    12     6    33 1   
    13     7     8 1   
    14     8     9 ar  
    15     8    11 ar  
    16     9    10 ar  
    17    10    13 ar  
    18    10    14 1   
    19    11    12 ar  
    20    11    26 1   
    21    12    13 ar  
    22    12    27 1   
    23    13    28 1   
    24    14    15 1   
    25    15    16 ar  
    26    15    20 ar  
    27    16    17 ar  
    28    16    34 1   
    29    17    18 ar  
    30    17    35 1   
    31    18    19 ar  
    32    18    36 1   
    33    19    20 ar  
    34    19    21 1   
    35    20    37 1   
    36    21    22 2   
    37    21    29 1   
    38    22    38 1   
    39    22    39 1   
    40    23    24 2   
    41    23    25 1   
    42    24    40 1   
    43    24    41 1   
    44    25    42 1   
    45    25    43 1   
    46    27    44 1   
    47    27    45 1   
    48    27    46 1   
    49    29    47 1   
    50    29    48 1   
@<TRIPOS>SUBSTRUCTURE
     1 Z23         1 TEMP              0 ****  ****    0 ROOT
