@<TRIPOS>MOLECULE
Z24
   27    28     1     0     0
SMALL
bcc


@<TRIPOS>ATOM
      1 OAB          0.8060    -2.2290    -1.4860 oh         1 Z24      -0.610800
      2 CAL          0.9910    -0.8270    -1.3930 c5         1 Z24       0.427300
      3 CAI          2.4470    -0.4220    -1.1910 c5         1 Z24      -0.092400
      4 CAP          2.6230    -0.4410     0.3230 c5         1 Z24      -0.199700
      5 CAK          3.8600     0.2910     0.8560 c          1 Z24       0.936600
      6 OAC          4.8880     0.2350     0.1520 o          1 Z24      -0.835300
      7 OAA          3.7460     0.8550     1.9630 o          1 Z24      -0.835300
      8 CAJ          1.2900     0.1140     0.8040 c5         1 Z24       0.247800
      9 NAQ          0.3450    -0.3790    -0.1940 nh         1 Z24      -0.713000
     10 CAO         -0.9900     0.0100    -0.1740 ca         1 Z24       0.163600
     11 CAN         -1.8100    -0.3220     0.9060 ca         1 Z24       0.132900
     12 FAE         -1.2950    -1.0480     1.9080 f          1 Z24      -0.129900
     13 CAH         -3.1350     0.0540     1.0000 ca         1 Z24      -0.204000
     14 CAM         -3.6780     0.7670    -0.0500 ca         1 Z24       0.109900
     15 FAD         -4.9680     1.1290     0.0150 f          1 Z24      -0.157900
     16 CAF         -2.9300     1.1130    -1.1570 ca         1 Z24      -0.171000
     17 CAG         -1.5930     0.7440    -1.1980 ca         1 Z24      -0.145000
     18 HAB1         1.1560    -2.5160    -2.3360 ho         1 Z24       0.394000
     19 HAL1         0.5760    -0.3540    -2.2910 h2         1 Z24       0.004700
     20 HAI1         3.1380    -1.0710    -1.7300 hc         1 Z24       0.051200
     21 HAI2         2.5920     0.5950    -1.5690 hc         1 Z24       0.051200
     22 HAP1         2.6980    -1.4870     0.6480 hc         1 Z24       0.052700
     23 HAJ2         1.0380    -0.2260     1.8090 h1         1 Z24       0.047700
     24 HAJ1         1.3040     1.2110     0.8220 h1         1 Z24       0.047700
     25 HAH1        -3.7300    -0.2280     1.8600 ha         1 Z24       0.154000
     26 HAF1        -3.3720     1.6760    -1.9680 ha         1 Z24       0.138000
     27 HAG1        -1.0050     1.0430    -2.0560 ha         1 Z24       0.135000
@<TRIPOS>BOND
     1     1     2 1   
     2     1    18 1   
     3     2     3 1   
     4     2     9 1   
     5     2    19 1   
     6     3     4 1   
     7     3    20 1   
     8     3    21 1   
     9     4     5 1   
    10     4     8 1   
    11     4    22 1   
    12     5     6 1   
    13     5     7 1   
    14     8     9 1   
    15     8    23 1   
    16     8    24 1   
    17     9    10 1   
    18    10    11 ar  
    19    10    17 ar  
    20    11    12 1   
    21    11    13 ar  
    22    13    14 ar  
    23    13    25 1   
    24    14    15 1   
    25    14    16 ar  
    26    16    17 ar  
    27    16    26 1   
    28    17    27 1   
@<TRIPOS>SUBSTRUCTURE
     1 Z24         1 TEMP              0 ****  ****    0 ROOT
