@<TRIPOS>MOLECULE
Z24
   27    28     1     0     0
SMALL
No Charge or Current Charge


@<TRIPOS>ATOM
      1 OAB          0.7730    -2.0380    -1.6550 oh         1 Z24      -0.673000
      2 CAL          1.0080    -0.6560    -1.4990 c5         1 Z24       0.450500
      3 CAI          2.5060    -0.3270    -1.2500 c5         1 Z24      -0.092400
      4 CAP          2.6250    -0.5560     0.2860 c5         1 Z24      -0.199700
      5 CAK          3.8820     0.1020     0.8950 c          1 Z24       0.726000
      6 OAC          4.6450    -0.5980     1.5430 o          1 Z24      -0.730000
      7 OAA          4.0990     1.2920     0.7140 o          1 Z24      -0.730000
      8 CAJ          1.3600     0.1710     0.7910 c5         1 Z24       0.247800
      9 NAQ          0.3710    -0.2100    -0.2550 nh         1 Z24      -0.851400
     10 CAO         -1.0210     0.0590    -0.1430 ca         1 Z24       0.302000
     11 CAN         -1.7910    -0.3480     0.9850 ca         1 Z24       0.168000
     12 FAE         -1.2280    -1.0450     2.0020 f          1 Z24      -0.165000
     13 CAH         -3.1650    -0.0600     1.0640 ca         1 Z24      -0.186000
     14 CAM         -3.7910     0.6390     0.0240 ca         1 Z24       0.145000
     15 FAD         -5.1100     0.9160     0.1010 f          1 Z24      -0.193000
     16 CAF         -3.0550     1.0510    -1.0950 ca         1 Z24      -0.153000
     17 CAG         -1.6790     0.7620    -1.1780 ca         1 Z24      -0.127000
     18 HAB1         1.2600    -2.2910    -2.4650 ho         1 Z24       0.433000
     19 HAL1         0.6370    -0.1160    -2.3790 h2         1 Z24       0.004700
     20 HAI1         3.1870    -0.9600    -1.8300 hc         1 Z24       0.051200
     21 HAI2         2.7160     0.7120    -1.5260 hc         1 Z24       0.051200
     22 HAP1         2.6000    -1.6210     0.5420 hc         1 Z24       0.052700
     23 HAJ2         1.0840    -0.1700     1.7980 h1         1 Z24       0.047700
     24 HAJ1         1.4910     1.2620     0.8190 h1         1 Z24       0.047700
     25 HAH1        -3.7400    -0.3810     1.9270 ha         1 Z24       0.136000
     26 HAF1        -3.5480     1.5960    -1.8970 ha         1 Z24       0.120000
     27 HAG1        -1.1220     1.1010    -2.0460 ha         1 Z24       0.117000
@<TRIPOS>BOND
     1     1     2 1   
     2     1    18 1   
     3     2     3 1   
     4     2     9 1   
     5     2    19 1   
     6     3     4 1   
     7     3    20 1   
     8     3    21 1   
     9     4     5 1   
    10     4     8 1   
    11     4    22 1   
    12     5     6 1   
    13     5     7 1   
    14     8     9 1   
    15     8    23 1   
    16     8    24 1   
    17     9    10 1   
    18    10    11 ar  
    19    10    17 ar  
    20    11    12 1   
    21    11    13 ar  
    22    13    14 ar  
    23    13    25 1   
    24    14    15 1   
    25    14    16 ar  
    26    16    17 ar  
    27    16    26 1   
    28    17    27 1   
@<TRIPOS>SUBSTRUCTURE
     1 Z24         1 TEMP              0 ****  ****    0 ROOT
