@<TRIPOS>MOLECULE
Z25
   26    27     1     0     0
SMALL
abcg2


@<TRIPOS>ATOM
      1 O3           5.1080    -1.0250    -0.0660 o          1 Z25      -0.739500
      2 C9           4.8870     0.2010    -0.0450 c          1 Z25       0.717000
      3 O4           5.7470     1.1070    -0.0480 o          1 Z25      -0.739500
      4 C8           3.4220     0.6750    -0.0180 c3         1 Z25      -0.207400
      5 C7           2.3930    -0.4390    -0.0040 c3         1 Z25      -0.089700
      6 C5           0.9680     0.0170     0.0050 cc         1 Z25       0.327300
      7 C6          -0.0940    -1.0200     0.0030 c          1 Z25       0.486000
      8 O2           0.2050    -2.2100     0.0050 o          1 Z25      -0.523100
      9 C3          -1.4290    -0.4920    -0.0000 cc         1 Z25      -0.463400
     10 C4          -2.6070    -1.3270    -0.0140 c          1 Z25       0.612200
     11 O1          -2.6490    -2.5410    -0.0280 o          1 Z25      -0.518000
     12 N4           0.7150     1.2770     0.0130 nd         1 Z25      -0.396400
     13 N3          -0.5480     1.6890     0.0200 na         1 Z25      -0.448300
     14 C2          -1.6280     0.8920     0.0100 cd         1 Z25       0.444600
     15 N2          -2.8120     1.5170     0.0100 nd         1 Z25      -0.781300
     16 C1          -3.8770     0.7500    -0.0010 cc         1 Z25       0.772800
     17 N5          -5.0830     1.3000    -0.0050 nv         1 Z25      -1.064200
     18 N1          -3.7980    -0.6050    -0.0120 ns         1 Z25      -0.461400
     19 H2           3.2890     1.3260     0.8520 hc         1 Z25       0.025700
     20 H3           3.2610     1.3280    -0.8820 hc         1 Z25       0.025700
     21 H4           2.5340    -1.0970    -0.8660 hc         1 Z25       0.078700
     22 H5           2.5460    -1.0890     0.8620 hc         1 Z25       0.078700
     23 H7          -5.1670     2.3020     0.0060 hn         1 Z25       0.507000
     24 H8          -5.9280     0.7550    -0.0150 hn         1 Z25       0.507000
     25 H9          -4.6500    -1.1510    -0.0210 hn         1 Z25       0.314500
     26 H6          -0.6780     2.6900     0.0240 hn         1 Z25       0.534000
@<TRIPOS>BOND
     1     1     2 1   
     2     2     3 1   
     3     2     4 1   
     4     4     5 1   
     5     4    19 1   
     6     4    20 1   
     7     5     6 1   
     8     5    21 1   
     9     5    22 1   
    10     6     7 1   
    11     6    12 2   
    12     7     8 2   
    13     7     9 1   
    14     9    10 1   
    15     9    14 2   
    16    10    11 2   
    17    10    18 1   
    18    12    13 1   
    19    13    14 1   
    20    13    26 1   
    21    14    15 1   
    22    15    16 2   
    23    16    17 1   
    24    16    18 1   
    25    17    23 1   
    26    17    24 1   
    27    18    25 1   
@<TRIPOS>SUBSTRUCTURE
     1 Z25         1 TEMP              0 ****  ****    0 ROOT
