@<TRIPOS>MOLECULE
Z25
   26    27     1     0     0
SMALL
No Charge or Current Charge


@<TRIPOS>ATOM
      1 O3           5.3660    -0.3800    -1.1670 o          1 Z25      -0.739500
      2 C9           4.8980     0.0210    -0.1130 c          1 Z25       0.717000
      3 O4           5.4290    -0.1530     0.9730 o          1 Z25      -0.739500
      4 C8           3.5240     0.7100    -0.1460 c3         1 Z25      -0.207400
      5 C7           2.3880    -0.3470    -0.0000 c3         1 Z25      -0.089700
      6 C5           0.9570     0.1800    -0.0150 cc         1 Z25       0.327300
      7 C6          -0.0910    -0.8690     0.1270 c          1 Z25       0.486000
      8 O2           0.1760    -2.0620     0.2460 o          1 Z25      -0.523100
      9 C3          -1.4660    -0.3650     0.1130 cc         1 Z25      -0.463400
     10 C4          -2.5940    -1.2870     0.2460 c          1 Z25       0.612200
     11 O1          -2.5380    -2.4970     0.3790 o          1 Z25      -0.518000
     12 N4           0.7310     1.4920    -0.1470 nd         1 Z25      -0.396400
     13 N3          -0.6210     1.8720    -0.1480 na         1 Z25      -0.448300
     14 C2          -1.6880     0.9870    -0.0240 cd         1 Z25       0.444600
     15 N2          -2.9540     1.5290    -0.0450 nd         1 Z25      -0.781300
     16 C1          -3.9020     0.6530     0.0740 cc         1 Z25       0.772800
     17 N5          -5.1270     1.1280     0.0500 nv         1 Z25      -1.064200
     18 N1          -3.7770    -0.6620     0.2100 ns         1 Z25      -0.461400
     19 H2           3.4210     1.3890     0.7100 hc         1 Z25       0.025700
     20 H3           3.3670     1.1940    -1.1180 hc         1 Z25       0.025700
     21 H4           2.4980    -1.0820    -0.8070 hc         1 Z25       0.078700
     22 H5           2.5480    -0.8960     0.9360 hc         1 Z25       0.078700
     23 H7          -5.1500     2.0970    -0.2390 hn         1 Z25       0.507000
     24 H8          -5.8280     0.5410    -0.3840 hn         1 Z25       0.507000
     25 H9          -4.5990    -1.2300     0.3200 hn         1 Z25       0.314500
     26 H6          -0.8420     2.8640    -0.2470 hn         1 Z25       0.534000
@<TRIPOS>BOND
     1     1     2 1   
     2     2     3 1   
     3     2     4 1   
     4     4     5 1   
     5     4    19 1   
     6     4    20 1   
     7     5     6 1   
     8     5    21 1   
     9     5    22 1   
    10     6     7 1   
    11     6    12 2   
    12     7     8 2   
    13     7     9 1   
    14     9    10 1   
    15     9    14 2   
    16    10    11 2   
    17    10    18 1   
    18    12    13 1   
    19    13    14 1   
    20    13    26 1   
    21    14    15 1   
    22    15    16 2   
    23    16    17 1   
    24    16    18 1   
    25    17    23 1   
    26    17    24 1   
    27    18    25 1   
@<TRIPOS>SUBSTRUCTURE
     1 Z25         1 TEMP              0 ****  ****    0 ROOT
