@<TRIPOS>MOLECULE
Z26
   38    40     1     0     0
SMALL
bcc


@<TRIPOS>ATOM
      1 C1         -19.6250    -0.7820    15.3870 ca         1 Z26      -0.094300
      2 C10        -17.9500     1.2740     9.1430 ca         1 Z26      -0.156300
      3 C11        -16.8530     0.5790     8.5850 ca         1 Z26       0.426200
      4 C13        -17.0110    -1.0930    10.1220 ca         1 Z26       0.378200
      5 C14        -19.7230     1.3620    10.8090 ca         1 Z26      -0.104000
      6 C15        -20.1540     2.5430    10.2690 ca         1 Z26      -0.117000
      7 C16        -19.4930     3.1230     9.1650 ca         1 Z26      -0.124000
      8 C17        -18.4120     2.4970     8.6090 ca         1 Z26      -0.104000
      9 C19        -21.1230     0.8470    16.3670 ca         1 Z26      -0.206000
     10 C2         -19.1730    -1.5710    14.1950 c3         1 Z26      -0.098100
     11 C20        -20.6910     0.1210    15.2630 ca         1 Z26       0.155100
     12 C22        -22.3150     1.1030    13.8320 c3         1 Z26       0.123700
     13 C3         -18.5370    -0.6930    13.1320 c          1 Z26       0.677100
     14 C4         -19.0100    -0.9310    16.6180 ca         1 Z26      -0.071000
     15 C5         -19.4470    -0.2030    17.7160 ca         1 Z26      -0.006600
     16 C7         -20.4980     0.6840    17.5980 ca         1 Z26      -0.077000
     17 C8         -18.0800    -0.5200    10.7550 ca         1 Z26      -0.045700
     18 C9         -18.6000     0.7030    10.2610 ca         1 Z26      -0.003000
     19 N12        -16.4040    -0.5580     9.0420 nb         1 Z26      -0.656000
     20 N6         -18.6720    -1.1580    11.8650 ns         1 Z26      -0.503100
     21 O18        -17.9300     0.3270    13.3950 o          1 Z26      -0.566100
     22 O21        -21.2320     0.2160    14.0350 os         1 Z26      -0.323900
     23 CL23       -18.6600    -0.4130    19.2490 cl         1 Z26      -0.110400
     24 H2         -16.6080    -2.0310    10.4870 h4         1 Z26       0.020100
     25 H3         -20.2480     0.9280    11.6480 ha         1 Z26       0.147000
     26 H4         -21.0180     3.0410    10.6910 ha         1 Z26       0.129000
     27 H5         -19.8510     4.0590     8.7580 ha         1 Z26       0.134000
     28 H6         -17.9010     2.9250     7.7550 ha         1 Z26       0.135000
     29 H7         -21.9440     1.5460    16.2950 ha         1 Z26       0.140000
     30 H8         -19.9980    -2.1480    13.7720 hc         1 Z26       0.066700
     31 H9         -18.4180    -2.2990    14.5040 hc         1 Z26       0.066700
     32 H10        -22.5900     1.0170    12.7830 h1         1 Z26       0.043367
     33 H11        -23.1780     0.8360    14.4460 h1         1 Z26       0.043367
     34 H12        -22.0370     2.1390    14.0390 h1         1 Z26       0.043367
     35 H13        -18.1850    -1.6250    16.7190 ha         1 Z26       0.148000
     36 H14        -20.8420     1.2530    18.4510 ha         1 Z26       0.147000
     37 H15        -19.1280    -2.0460    11.7160 hn         1 Z26       0.323500
     38 H1         -16.3460     1.0030     7.7220 h4         1 Z26       0.020100
@<TRIPOS>BOND
     1     1    10 1   
     2     1    11 ar  
     3     1    14 ar  
     4     2     3 ar  
     5     2     8 ar  
     6     2    18 ar  
     7     3    19 ar  
     8     3    38 1   
     9     4    17 ar  
    10     4    19 ar  
    11     4    24 1   
    12     5     6 ar  
    13     5    18 ar  
    14     5    25 1   
    15     6     7 ar  
    16     6    26 1   
    17     7     8 ar  
    18     7    27 1   
    19     8    28 1   
    20     9    11 ar  
    21     9    16 ar  
    22     9    29 1   
    23    10    13 1   
    24    10    30 1   
    25    10    31 1   
    26    11    22 1   
    27    12    22 1   
    28    12    32 1   
    29    12    33 1   
    30    12    34 1   
    31    13    20 1   
    32    13    21 2   
    33    14    15 ar  
    34    14    35 1   
    35    15    16 ar  
    36    15    23 1   
    37    16    36 1   
    38    17    18 ar  
    39    17    20 1   
    40    20    37 1   
@<TRIPOS>SUBSTRUCTURE
     1 Z26         1 TEMP              0 ****  ****    0 ROOT
