@<TRIPOS>MOLECULE
Z26
   38    40     1     0     0
SMALL
No Charge or Current Charge


@<TRIPOS>ATOM
      1 C1         -19.6780    -1.0730    15.4040 ca         1 Z26      -0.094300
      2 C10        -18.1090     1.5150     9.1910 ca         1 Z26      -0.091000
      3 C11        -16.7040     1.4350     9.1440 ca         1 Z26       0.360900
      4 C13        -16.6410     0.0560    11.0030 ca         1 Z26       0.312900
      5 C14        -20.2150     0.9000    10.2510 ca         1 Z26      -0.086000
      6 C15        -20.9130     1.6620     9.2980 ca         1 Z26      -0.099000
      7 C16        -20.2140     2.3500     8.2930 ca         1 Z26      -0.106000
      8 C17        -18.8120     2.2770     8.2380 ca         1 Z26      -0.086000
      9 C19        -20.7100     0.8890    16.4370 ca         1 Z26      -0.188000
     10 C2         -19.3630    -1.9320    14.1760 c3         1 Z26      -0.098100
     11 C20        -20.4430     0.1120    15.2870 ca         1 Z26       0.155100
     12 C22        -21.6640     1.6810    13.8150 c3         1 Z26       0.146900
     13 C3         -18.2630    -1.2840    13.3240 c          1 Z26       0.610100
     14 C4         -19.1880    -1.4630    16.6680 ca         1 Z26      -0.053000
     15 C5         -19.4590    -0.6850    17.8050 ca         1 Z26       0.085000
     16 C7         -20.2180     0.4890    17.6910 ca         1 Z26      -0.059000
     17 C8         -18.0510     0.0720    11.1450 ca         1 Z26      -0.073000
     18 C9         -18.8030     0.8210    10.2060 ca         1 Z26      -0.003000
     19 N12        -15.9760     0.7190    10.0290 nb         1 Z26      -0.656000
     20 N6         -18.7250    -0.6380    12.1850 ns         1 Z26      -0.177000
     21 O18        -17.0840    -1.3310    13.6540 o          1 Z26      -0.566100
     22 O21        -20.9070     0.4770    14.0360 os         1 Z26      -0.347100
     23 Cl23       -18.8420    -1.1830    19.3750 cl         1 Z26      -0.202000
     24 H2         -16.0030    -0.5140    11.6740 h4         1 Z26       0.020100
     25 H3         -20.7850     0.3780    11.0140 ha         1 Z26       0.129000
     26 H4         -21.9980     1.7190     9.3390 ha         1 Z26       0.111000
     27 H5         -20.7570     2.9380     7.5570 ha         1 Z26       0.116000
     28 H6         -18.2760     2.8120     7.4560 ha         1 Z26       0.117000
     29 H7         -21.2940     1.8030    16.3790 ha         1 Z26       0.122000
     30 H8         -20.2750    -2.0510    13.5780 hc         1 Z26       0.066700
     31 H9         -19.0160    -2.9220    14.4920 hc         1 Z26       0.066700
     32 H10        -21.9250     1.7770    12.7540 h1         1 Z26       0.043367
     33 H11        -22.5970     1.6660    14.3940 h1         1 Z26       0.043367
     34 H12        -21.0830     2.5660    14.1030 h1         1 Z26       0.043367
     35 H13        -18.5950    -2.3680    16.7720 ha         1 Z26       0.130000
     36 H14        -20.4250     1.0880    18.5750 ha         1 Z26       0.129000
     37 H15        -19.7310    -0.6610    12.0830 hn         1 Z26       0.157000
     38 H1         -16.1420     1.9600     8.3720 h4         1 Z26       0.020100
@<TRIPOS>BOND
     1     1    10 1   
     2     1    11 ar  
     3     1    14 ar  
     4     2     3 ar  
     5     2     8 ar  
     6     2    18 ar  
     7     3    19 ar  
     8     3    38 1   
     9     4    17 ar  
    10     4    19 ar  
    11     4    24 1   
    12     5     6 ar  
    13     5    18 ar  
    14     5    25 1   
    15     6     7 ar  
    16     6    26 1   
    17     7     8 ar  
    18     7    27 1   
    19     8    28 1   
    20     9    11 ar  
    21     9    16 ar  
    22     9    29 1   
    23    10    13 1   
    24    10    30 1   
    25    10    31 1   
    26    11    22 1   
    27    12    22 1   
    28    12    32 1   
    29    12    33 1   
    30    12    34 1   
    31    13    20 1   
    32    13    21 2   
    33    14    15 ar  
    34    14    35 1   
    35    15    16 ar  
    36    15    23 1   
    37    16    36 1   
    38    17    18 ar  
    39    17    20 1   
    40    20    37 1   
@<TRIPOS>SUBSTRUCTURE
     1 Z26         1 TEMP              0 ****  ****    0 ROOT
