@<TRIPOS>MOLECULE
Z27
   43    46     1     0     0
SMALL
bcc


@<TRIPOS>ATOM
      1 S1          -4.6000     2.8730    -0.6030 ss         1 Z27      -0.061100
      2 C2          -3.3170     1.6860    -0.6250 cc         1 Z27       0.393100
      3 N3          -3.6620     0.4630    -0.4600 nd         1 Z27      -0.528100
      4 C4          -5.0230     0.3620    -0.3030 ca         1 Z27       0.107400
      5 C5          -5.7230     1.5760    -0.3560 ca         1 Z27      -0.059100
      6 C6          -5.7150    -0.8320    -0.1090 ca         1 Z27      -0.068000
      7 C7          -7.0870    -0.7680     0.0230 ca         1 Z27       0.026400
      8 C8          -7.7860     0.4390    -0.0300 ca         1 Z27      -0.114000
      9 C9          -7.1030     1.6270    -0.2220 ca         1 Z27      -0.081000
     10 CL10        -7.9790    -2.2340     0.2640 cl         1 Z27      -0.102400
     11 S11         -1.6840     2.2580    -0.8670 ss         1 Z27      -0.101100
     12 C12          0.5040    -1.0350    -1.5990 ca         1 Z27      -0.177000
     13 C13          0.7350    -1.5550    -0.3290 ca         1 Z27       0.167600
     14 C14          0.1940    -0.9290     0.7900 ca         1 Z27      -0.161000
     15 C15         -0.5490     0.2270     0.6270 ca         1 Z27       0.102400
     16 CL16        -1.2060     0.9810     2.0280 cl         1 Z27      -0.066400
     17 C17         -0.7910     0.7560    -0.6380 ca         1 Z27      -0.025100
     18 C18         -0.2650     0.1040    -1.7450 ca         1 Z27      -0.038000
     19 S19          2.7970    -2.8130     0.8330 sy         1 Z27       1.304200
     20 O20          2.3000    -2.7640     2.1930 o          1 Z27      -0.585300
     21 O21          3.5830    -3.9460     0.3970 o          1 Z27      -0.585300
     22 C24          3.6910    -1.2960     0.5560 ca         1 Z27      -0.267500
     23 C25          3.8220    -0.4080     1.6130 ca         1 Z27      -0.025000
     24 C26          4.5010     0.7860     1.4410 ca         1 Z27      -0.096000
     25 C27          5.0430     1.0930     0.2030 ca         1 Z27      -0.138300
     26 C28          5.8130     2.3680     0.0060 c3         1 Z27       0.721200
     27 F29          7.1240     2.1680     0.1880 f          1 Z27      -0.226967
     28 F30          5.6580     2.8570    -1.2260 f          1 Z27      -0.226967
     29 F31          5.4350     3.3160     0.8640 f          1 Z27      -0.226967
     30 C32          4.9180     0.2110    -0.8620 ca         1 Z27      -0.094000
     31 C33          4.2450    -0.9840    -0.6830 ca         1 Z27       0.096400
     32 CL34         4.0980    -2.0390    -2.0350 cl         1 Z27      -0.074400
     33 H6          -5.1810    -1.7720    -0.0690 ha         1 Z27       0.167000
     34 H8          -8.8620     0.4500     0.0760 ha         1 Z27       0.151000
     35 H9          -7.6430     2.5630    -0.2640 ha         1 Z27       0.148000
     36 H12          0.9220    -1.5180    -2.4720 ha         1 Z27       0.144000
     37 H14          0.3290    -1.3390     1.7800 ha         1 Z27       0.181000
     38 H18         -0.4490     0.5000    -2.7350 ha         1 Z27       0.153000
     39 HN22         1.6730    -3.2210    -1.0720 hn         1 Z27       0.451800
     40 H25          3.3940    -0.6400     2.5780 ha         1 Z27       0.175000
     41 H26          4.5890     1.4620     2.2800 ha         1 Z27       0.162000
     42 H32          5.3330     0.4410    -1.8330 ha         1 Z27       0.168000
     43 N22          1.5020    -2.7270    -0.2030 nu         1 Z27      -0.689500
@<TRIPOS>BOND
     1     1     2 1   
     2     1     5 1   
     3     2     3 2   
     4     2    11 1   
     5     3     4 1   
     6     4     5 ar  
     7     4     6 ar  
     8     5     9 ar  
     9     6     7 ar  
    10     6    33 1   
    11     7     8 ar  
    12     7    10 1   
    13     8     9 ar  
    14     8    34 1   
    15     9    35 1   
    16    11    17 1   
    17    12    13 ar  
    18    12    18 ar  
    19    12    36 1   
    20    13    14 ar  
    21    13    43 1   
    22    14    15 ar  
    23    14    37 1   
    24    15    16 1   
    25    15    17 ar  
    26    17    18 ar  
    27    18    38 1   
    28    19    20 2   
    29    19    21 2   
    30    19    22 1   
    31    19    43 1   
    32    22    23 ar  
    33    22    31 ar  
    34    23    24 ar  
    35    23    40 1   
    36    24    25 ar  
    37    24    41 1   
    38    25    26 1   
    39    25    30 ar  
    40    26    27 1   
    41    26    28 1   
    42    26    29 1   
    43    30    31 ar  
    44    30    42 1   
    45    31    32 1   
    46    39    43 1   
@<TRIPOS>SUBSTRUCTURE
     1 Z27         1 TEMP              0 ****  ****    0 ROOT
