@<TRIPOS>MOLECULE
Z27
   43    46     1     0     0
SMALL
No Charge or Current Charge


@<TRIPOS>ATOM
      1 S1          -4.6370     2.8800    -0.7840 ss         1 Z27       0.065800
      2 C2          -3.3990     1.6940    -1.2400 cc         1 Z27       0.393100
      3 N3          -3.6240     0.3880    -1.0180 nd         1 Z27      -0.528100
      4 C4          -4.8670     0.2980    -0.4060 ca         1 Z27       0.107400
      5 C5          -5.5400     1.4890    -0.2000 ca         1 Z27      -0.186000
      6 C6          -5.4490    -0.9140    -0.0020 ca         1 Z27      -0.050000
      7 C7          -6.7160    -0.8980     0.6120 ca         1 Z27       0.118000
      8 C8          -7.3940     0.3210     0.8180 ca         1 Z27      -0.096000
      9 C9          -6.8040     1.5320     0.4080 ca         1 Z27      -0.063000
     10 Cl10        -7.4580    -2.4080     1.1250 cl         1 Z27      -0.194000
     11 S11         -1.9180     2.2540    -2.0460 ss         1 Z27       0.025800
     12 C12          0.1600    -1.2620    -2.1620 ca         1 Z27      -0.159000
     13 C13          0.5860    -1.4410    -0.8370 ca         1 Z27       0.306000
     14 C14          0.2390    -0.4840     0.1320 ca         1 Z27      -0.143000
     15 C15         -0.5180     0.6420    -0.2220 ca         1 Z27       0.194000
     16 Cl16        -0.9010     1.8300     1.0230 cl         1 Z27      -0.158000
     17 C17         -0.9490     0.8180    -1.5540 ca         1 Z27      -0.152000
     18 C18         -0.6010    -0.1380    -2.5240 ca         1 Z27      -0.020000
     19 S19          2.4750    -2.7770     0.6920 sy         1 Z27       1.162600
     20 O20          1.6770    -2.8270     1.9200 o          1 Z27      -0.514500
     21 O21          3.2390    -3.9320     0.2190 o          1 Z27      -0.514500
     22 C24          3.5040    -1.3040     0.6670 ca         1 Z27      -0.267500
     23 C25          3.5390    -0.4720     1.8070 ca         1 Z27      -0.007000
     24 C26          4.3180     0.6970     1.8140 ca         1 Z27      -0.078000
     25 C27          5.0730     1.0630     0.6800 ca         1 Z27      -0.138300
     26 C28          5.9310     2.3340     0.6850 c3         1 Z27       0.357300
     27 F29          7.1900     2.0740     1.1020 f          1 Z27      -0.105667
     28 F30          6.0280     2.8920    -0.5430 f          1 Z27      -0.105667
     29 F31          5.4320     3.2890     1.5040 f          1 Z27      -0.105667
     30 C32          5.0400     0.2230    -0.4540 ca         1 Z27      -0.076000
     31 C33          4.2640    -0.9480    -0.4690 ca         1 Z27       0.188000
     32 Cl34         4.2710    -1.9090    -1.9500 cl         1 Z27      -0.166000
     33 H6          -4.9260    -1.8520    -0.1600 ha         1 Z27       0.149000
     34 H8          -8.3720     0.3250     1.2920 ha         1 Z27       0.133000
     35 H9          -7.3190     2.4790     0.5610 ha         1 Z27       0.130000
     36 H12          0.4210    -1.9940    -2.9210 ha         1 Z27       0.126000
     37 H14          0.5470    -0.6000     1.1640 ha         1 Z27       0.163000
     38 H18         -0.9230    -0.0120    -3.5560 ha         1 Z27       0.135000
     39 HN22         1.6930    -3.1090    -1.3130 hn         1 Z27       0.507000
     40 H25          2.9650    -0.7240     2.6990 ha         1 Z27       0.157000
     41 H26          4.3310     1.3150     2.7090 ha         1 Z27       0.144000
     42 H32          5.6200     0.4760    -1.3390 ha         1 Z27       0.150000
     43 N22          1.3510    -2.5610    -0.5350 nu         1 Z27      -0.883100
@<TRIPOS>BOND
     1     1     2 1   
     2     1     5 1   
     3     2     3 2   
     4     2    11 1   
     5     3     4 1   
     6     4     5 ar  
     7     4     6 ar  
     8     5     9 ar  
     9     6     7 ar  
    10     6    33 1   
    11     7     8 ar  
    12     7    10 1   
    13     8     9 ar  
    14     8    34 1   
    15     9    35 1   
    16    11    17 1   
    17    12    13 ar  
    18    12    18 ar  
    19    12    36 1   
    20    13    14 ar  
    21    13    43 1   
    22    14    15 ar  
    23    14    37 1   
    24    15    16 1   
    25    15    17 ar  
    26    17    18 ar  
    27    18    38 1   
    28    19    20 2   
    29    19    21 2   
    30    19    22 1   
    31    19    43 1   
    32    22    23 ar  
    33    22    31 ar  
    34    23    24 ar  
    35    23    40 1   
    36    24    25 ar  
    37    24    41 1   
    38    25    26 1   
    39    25    30 ar  
    40    26    27 1   
    41    26    28 1   
    42    26    29 1   
    43    30    31 ar  
    44    30    42 1   
    45    31    32 1   
    46    39    43 1   
@<TRIPOS>SUBSTRUCTURE
     1 Z27         1 TEMP              0 ****  ****    0 ROOT
