@<TRIPOS>MOLECULE
Z2C
   65    66     1     0     0
SMALL
No Charge or Current Charge


@<TRIPOS>ATOM
      1 C3         112.7640    76.5600   119.1480 c3         1 Z2C       0.173300
      2 C4         110.8360    69.2310   120.3430 c3         1 Z2C      -0.045400
      3 C6         113.0210    73.7410   115.4400 c5         1 Z2C       0.171300
      4 C8         113.3920    73.0570   117.7960 c5         1 Z2C      -0.087700
      5 C9         114.4250    72.3570   116.8620 c5         1 Z2C       0.180300
      6 C12        113.0280    74.3060   116.9120 c5         1 Z2C      -0.099700
      7 C16        112.9280    77.0080   120.6190 c3         1 Z2C      -0.070100
      8 C18        110.6760    76.1980   121.4810 ca         1 Z2C      -0.096000
      9 C20        109.1160    77.6950   122.5910 ca         1 Z2C      -0.090000
     10 C22        111.2590    78.5370   121.7950 ca         1 Z2C      -0.108000
     11 CAB        110.7700    70.6470   120.9580 c3         1 Z2C       0.102600
     12 CAC        111.6620    68.2140   121.1730 c3         1 Z2C      -0.213400
     13 OAA        108.5370    74.7070   123.6030 os         1 Z2C      -0.451000
     14 O1         110.1620    67.1130   122.6460 o          1 Z2C      -0.738500
     15 S1         109.8640    71.8080   119.8280 ss         1 Z2C      -0.512000
     16 C2         111.0250    67.9720   122.5530 c          1 Z2C       0.714000
     17 O2         111.3860    68.6730   123.4850 o          1 Z2C      -0.738500
     18 O3         112.1620    77.6240   118.4040 oh         1 Z2C      -0.668000
     19 O4         114.8000    71.0580   117.3110 oh         1 Z2C      -0.643000
     20 C5         113.6390    72.3120   115.5330 c5         1 Z2C      -0.072400
     21 O6         111.7070    73.7030   114.8870 oh         1 Z2C      -0.639000
     22 C14        114.1040    76.1460   118.4890 c3         1 Z2C      -0.070400
     23 C17        111.5910    77.2570   121.3130 ca         1 Z2C      -0.096300
     24 C19        109.4370    76.4100   122.1150 ca         1 Z2C      -0.117300
     25 C21        110.0260    78.7540   122.4320 ca         1 Z2C      -0.122000
     26 C23        108.4460    75.2580   122.2740 c3         1 Z2C       0.197900
     27 H1         112.1000    75.6870   119.1470 h1         1 Z2C       0.035700
     28 H2         111.2760    69.2990   119.3410 hc         1 Z2C       0.030200
     29 H3         109.8160    68.8490   120.2120 hc         1 Z2C       0.030200
     30 H4         113.6600    74.3690   114.8030 h1         1 Z2C       0.028700
     31 H5         111.5490    71.9110   117.3800 hc         1 Z2C       0.064200
     32 H6         112.5220    71.2630   118.6870 hc         1 Z2C       0.064200
     33 H7         113.8850    73.3500   118.7270 hc         1 Z2C       0.041700
     34 H8         115.3250    72.9780   116.7480 h1         1 Z2C       0.021700
     35 H9         112.0320    74.6830   117.1640 hc         1 Z2C       0.057700
     36 H10        113.4730    76.2290   121.1660 hc         1 Z2C       0.057700
     37 H11        113.5620    77.9030   120.6560 hc         1 Z2C       0.057700
     38 H12        110.9280    75.2040   121.1220 ha         1 Z2C       0.128000
     39 H13        108.1630    77.8720   123.0850 ha         1 Z2C       0.115000
     40 H14        111.9550    79.3650   121.6770 ha         1 Z2C       0.110000
     41 H15        109.6980    73.5360   124.8890 h1         1 Z2C       0.035033
     42 H16        109.8780    73.1520   123.1630 h1         1 Z2C       0.035033
     43 H17        110.6250    74.6230   123.8370 h1         1 Z2C       0.035033
     44 H18        111.8410    73.2090   120.1420 h1         1 Z2C       0.049200
     45 H19        110.8120    73.7990   118.8190 h1         1 Z2C       0.049200
     46 H20        110.2400    70.6080   121.9190 h1         1 Z2C       0.073200
     47 H21        111.7840    71.0230   121.1430 h1         1 Z2C       0.073200
     48 H22        111.6470    67.2880   120.5840 hc         1 Z2C       0.018700
     49 H23        112.6630    68.6490   121.2770 hc         1 Z2C       0.018700
     50 H25        111.4210    77.9570   118.9550 ho         1 Z2C       0.446000
     51 H26        115.2950    71.1820   118.1500 ho         1 Z2C       0.445000
     52 H27        112.8700    71.5310   115.5430 hc         1 Z2C       0.057200
     53 H28        114.2910    72.0970   114.6800 hc         1 Z2C       0.057200
     54 H29        111.3960    74.6330   114.8380 ho         1 Z2C       0.435000
     55 H30        114.9930    75.2630   116.7300 hc         1 Z2C       0.042700
     56 H31        113.6520    76.3240   116.3840 hc         1 Z2C       0.042700
     57 H32        114.6170    75.4320   119.1440 hc         1 Z2C       0.047200
     58 H33        114.7600    77.0230   118.4370 hc         1 Z2C       0.047200
     59 H34        109.7740    79.7450   122.8030 ha         1 Z2C       0.107000
     60 H35        107.4310    75.6380   122.0960 h1         1 Z2C       0.056700
     61 H36        108.6390    74.4860   121.5160 h1         1 Z2C       0.056700
     62 C13        113.9840    75.5320   117.0660 c3         1 Z2C      -0.065400
     63 C24        109.7430    73.9710   123.8830 c3         1 Z2C       0.134900
     64 C7         112.1640    72.1970   118.2410 c3         1 Z2C      -0.068400
     65 CAA        111.2510    72.9010   119.2690 c3         1 Z2C       0.065600
@<TRIPOS>BOND
     1     1     7 1   
     2     1    18 1   
     3     1    22 1   
     4     1    27 1   
     5     2    11 1   
     6     2    12 1   
     7     2    28 1   
     8     2    29 1   
     9     3     6 1   
    10     3    20 1   
    11     3    21 1   
    12     3    30 1   
    13     4     5 1   
    14     4     6 1   
    15     4    33 1   
    16     4    64 1   
    17     5    19 1   
    18     5    20 1   
    19     5    34 1   
    20     6    35 1   
    21     6    62 1   
    22     7    23 1   
    23     7    36 1   
    24     7    37 1   
    25     8    23 ar  
    26     8    24 ar  
    27     8    38 1   
    28     9    24 ar  
    29     9    25 ar  
    30     9    39 1   
    31    10    23 ar  
    32    10    25 ar  
    33    10    40 1   
    34    11    15 1   
    35    11    46 1   
    36    11    47 1   
    37    12    16 1   
    38    12    48 1   
    39    12    49 1   
    40    13    26 1   
    41    13    63 1   
    42    14    16 1   
    43    15    65 1   
    44    16    17 1   
    45    18    50 1   
    46    19    51 1   
    47    20    52 1   
    48    20    53 1   
    49    21    54 1   
    50    22    57 1   
    51    22    58 1   
    52    22    62 1   
    53    24    26 1   
    54    25    59 1   
    55    26    60 1   
    56    26    61 1   
    57    31    64 1   
    58    32    64 1   
    59    41    63 1   
    60    42    63 1   
    61    43    63 1   
    62    44    65 1   
    63    45    65 1   
    64    55    62 1   
    65    56    62 1   
    66    64    65 1   
@<TRIPOS>SUBSTRUCTURE
     1 Z2C         1 TEMP              0 ****  ****    0 ROOT
