@<TRIPOS>MOLECULE
Z2C
   65    66     1     0     0
SMALL
abcg2


@<TRIPOS>ATOM
      1 C3         112.6180    76.5500   119.1780 c3         1 Z2C       0.173300
      2 C4         111.1070    69.2900   120.3440 c3         1 Z2C      -0.045400
      3 C6         112.9220    73.8190   115.5340 c5         1 Z2C       0.171300
      4 C8         113.5720    72.9270   117.7130 c5         1 Z2C      -0.087700
      5 C9         114.2740    72.0990   116.5840 c5         1 Z2C       0.180300
      6 C12        112.9930    74.1890   117.0220 c5         1 Z2C      -0.099700
      7 C16        112.7040    76.8150   120.6860 c3         1 Z2C      -0.070100
      8 C18        110.4090    76.2860   121.5260 ca         1 Z2C      -0.096000
      9 C20        108.8610    77.9790   122.2110 ca         1 Z2C      -0.090000
     10 C22        111.0660    78.5860   121.4560 ca         1 Z2C      -0.108000
     11 CAB        111.4860    70.4930   121.1950 c3         1 Z2C       0.102600
     12 CAC        111.7790    68.0080   120.8160 c3         1 Z2C      -0.213400
     13 OAA        108.0260    75.3210   123.7110 os         1 Z2C      -0.451000
     14 O1         110.2250    67.8610   122.6300 o          1 Z2C      -0.738500
     15 S1         110.7090    72.0480   120.6480 ss         1 Z2C      -0.512000
     16 C2         111.3190    67.4580   122.1830 c          1 Z2C       0.714000
     17 O2         112.0760    66.6200   122.7130 o          1 Z2C      -0.738500
     18 O3         112.3380    77.7280   118.4530 oh         1 Z2C      -0.668000
     19 O4         113.6860    70.8430   116.3130 oh         1 Z2C      -0.643000
     20 C5         114.1670    72.9730   115.3350 c5         1 Z2C      -0.072400
     21 O6         111.7920    73.0270   115.2250 oh         1 Z2C      -0.639000
     22 C14        113.9180    75.9630   118.6530 c3         1 Z2C      -0.070400
     23 C17        111.3810    77.2470   121.2490 ca         1 Z2C      -0.096300
     24 C19        109.1510    76.6320   121.9990 ca         1 Z2C      -0.117300
     25 C21        109.8120    78.9490   121.9370 ca         1 Z2C      -0.122000
     26 C23        108.1400    75.5650   122.3280 c3         1 Z2C       0.197900
     27 H1         111.8110    75.8190   119.0240 h1         1 Z2C       0.035700
     28 H2         111.3810    69.4860   119.3040 hc         1 Z2C       0.030200
     29 H3         110.0220    69.1680   120.3600 hc         1 Z2C       0.030200
     30 H4         112.9400    74.7200   114.9040 h1         1 Z2C       0.028700
     31 H5         111.6680    71.8990   117.8630 hc         1 Z2C       0.064200
     32 H6         112.9520    71.1700   118.8130 hc         1 Z2C       0.064200
     33 H7         114.3470    73.2280   118.4260 hc         1 Z2C       0.041700
     34 H8         115.3270    71.9530   116.8520 h1         1 Z2C       0.021700
     35 H9         111.9810    74.4060   117.3850 hc         1 Z2C       0.057700
     36 H10        113.0230    75.8930   121.1790 hc         1 Z2C       0.057700
     37 H11        113.4750    77.5670   120.8770 hc         1 Z2C       0.057700
     38 H12        110.6440    75.2370   121.3740 ha         1 Z2C       0.128000
     39 H13        107.8850    78.2690   122.5840 ha         1 Z2C       0.115000
     40 H14        111.8050    79.3500   121.2490 ha         1 Z2C       0.110000
     41 H15        108.9240    74.4400   125.2960 h1         1 Z2C       0.035033
     42 H16        109.4540    73.8060   123.7260 h1         1 Z2C       0.035033
     43 H17        110.0340    75.3810   124.2890 h1         1 Z2C       0.035033
     44 H18        112.8870    73.0390   120.4290 h1         1 Z2C       0.049200
     45 H19        111.6390    73.8370   119.4890 h1         1 Z2C       0.049200
     46 H20        111.1750    70.3320   122.2270 h1         1 Z2C       0.073200
     47 H21        112.5680    70.6450   121.2060 h1         1 Z2C       0.073200
     48 H22        111.5940    67.2220   120.0740 hc         1 Z2C       0.018700
     49 H23        112.8660    68.1400   120.8280 hc         1 Z2C       0.018700
     50 H25        111.4500    78.0230   118.6800 ho         1 Z2C       0.446000
     51 H26        113.8640    70.2590   117.0550 ho         1 Z2C       0.445000
     52 H27        114.1530    72.3870   114.4140 hc         1 Z2C       0.057200
     53 H28        115.0350    73.6330   115.2770 hc         1 Z2C       0.057200
     54 H29        111.0060    73.5290   115.4630 ho         1 Z2C       0.435000
     55 H30        114.8820    75.2250   116.8990 hc         1 Z2C       0.042700
     56 H31        113.4980    76.2320   116.5610 hc         1 Z2C       0.042700
     57 H32        114.2270    75.1590   119.3270 hc         1 Z2C       0.047200
     58 H33        114.6980    76.7280   118.7290 hc         1 Z2C       0.047200
     59 H34        109.5790    79.9940   122.0960 ha         1 Z2C       0.107000
     60 H35        107.1480    75.8720   121.9910 h1         1 Z2C       0.056700
     61 H36        108.4000    74.6400   121.7930 h1         1 Z2C       0.056700
     62 C13        113.8580    75.4390   117.2220 c3         1 Z2C      -0.065400
     63 C24        109.1650    74.7150   124.2700 c3         1 Z2C       0.134900
     64 C7         112.5270    72.1270   118.4970 c3         1 Z2C      -0.068400
     65 CAA        112.0550    72.8620   119.7420 c3         1 Z2C       0.065600
@<TRIPOS>BOND
     1     1     7 1   
     2     1    18 1   
     3     1    22 1   
     4     1    27 1   
     5     2    11 1   
     6     2    12 1   
     7     2    28 1   
     8     2    29 1   
     9     3     6 1   
    10     3    20 1   
    11     3    21 1   
    12     3    30 1   
    13     4     5 1   
    14     4     6 1   
    15     4    33 1   
    16     4    64 1   
    17     5    19 1   
    18     5    20 1   
    19     5    34 1   
    20     6    35 1   
    21     6    62 1   
    22     7    23 1   
    23     7    36 1   
    24     7    37 1   
    25     8    23 ar  
    26     8    24 ar  
    27     8    38 1   
    28     9    24 ar  
    29     9    25 ar  
    30     9    39 1   
    31    10    23 ar  
    32    10    25 ar  
    33    10    40 1   
    34    11    15 1   
    35    11    46 1   
    36    11    47 1   
    37    12    16 1   
    38    12    48 1   
    39    12    49 1   
    40    13    26 1   
    41    13    63 1   
    42    14    16 1   
    43    15    65 1   
    44    16    17 1   
    45    18    50 1   
    46    19    51 1   
    47    20    52 1   
    48    20    53 1   
    49    21    54 1   
    50    22    57 1   
    51    22    58 1   
    52    22    62 1   
    53    24    26 1   
    54    25    59 1   
    55    26    60 1   
    56    26    61 1   
    57    31    64 1   
    58    32    64 1   
    59    41    63 1   
    60    42    63 1   
    61    43    63 1   
    62    44    65 1   
    63    45    65 1   
    64    55    62 1   
    65    56    62 1   
    66    64    65 1   
@<TRIPOS>SUBSTRUCTURE
     1 Z2C         1 TEMP              0 ****  ****    0 ROOT
