@<TRIPOS>MOLECULE
Z2D
   24    24     1     0     0
SMALL
bcc


@<TRIPOS>ATOM
      1 C1          54.4410    34.6380    61.2040 c6         1 Z2D       0.346900
      2 C2          54.6580    35.0470    62.6540 c6         1 Z2D       0.148100
      3 C3          55.3630    33.8990    63.3710 c6         1 Z2D       0.112100
      4 C4          54.6380    32.5630    63.1990 c6         1 Z2D       0.090100
      5 C5          54.3440    32.3090    61.7150 c6         1 Z2D       0.127100
      6 C6          55.5660    31.8370    60.9230 c3         1 Z2D       0.103400
      7 O1          53.7060    35.6150    60.5660 oh         1 Z2D      -0.546800
      8 O2          53.4280    35.3900    63.2300 oh         1 Z2D      -0.556800
      9 O3          55.5000    34.2770    64.7190 oh         1 Z2D      -0.587800
     10 O4          53.4550    32.5820    63.9630 oh         1 Z2D      -0.570800
     11 O5          53.7230    33.4270    61.1140 os         1 Z2D      -0.417600
     12 O6          55.8850    30.5420    61.3790 oh         1 Z2D      -0.601800
     13 H1          55.4330    34.5210    60.7380 h2         1 Z2D       0.004700
     14 HO1         53.7850    35.4970    59.6140 ho         1 Z2D       0.410000
     15 H2          55.3450    35.9080    62.6510 h1         1 Z2D       0.049700
     16 HO2         53.4910    35.2350    64.1780 ho         1 Z2D       0.425000
     17 H3          56.3500    33.7890    62.9000 h1         1 Z2D       0.033700
     18 HO3         55.8210    33.5260    65.2280 ho         1 Z2D       0.416000
     19 H4          55.3080    31.7660    63.5530 h1         1 Z2D       0.045700
     20 HO4         53.1240    31.6810    64.0200 ho         1 Z2D       0.408000
     21 H5          53.6060    31.5020    61.6510 h1         1 Z2D       0.092700
     22 H62         56.4180    32.5170    61.0440 h1         1 Z2D       0.028700
     23 H61         55.3030    31.8400    59.8580 h1         1 Z2D       0.028700
     24 HO6         56.7050    30.2680    60.9580 ho         1 Z2D       0.412000
@<TRIPOS>BOND
     1     1     2 1   
     2     1     7 1   
     3     1    11 1   
     4     1    13 1   
     5     2     3 1   
     6     2     8 1   
     7     2    15 1   
     8     3     4 1   
     9     3     9 1   
    10     3    17 1   
    11     4     5 1   
    12     4    10 1   
    13     4    19 1   
    14     5     6 1   
    15     5    11 1   
    16     5    21 1   
    17     6    12 1   
    18     6    22 1   
    19     6    23 1   
    20     7    14 1   
    21     8    16 1   
    22     9    18 1   
    23    10    20 1   
    24    12    24 1   
@<TRIPOS>SUBSTRUCTURE
     1 Z2D         1 TEMP              0 ****  ****    0 ROOT
