@<TRIPOS>MOLECULE
Z2D
   24    24     1     0     0
SMALL
No Charge or Current Charge


@<TRIPOS>ATOM
      1 C1          54.5860    34.6260    61.0970 c6         1 Z2D       0.393300
      2 C2          54.8070    35.0710    62.5860 c6         1 Z2D       0.171300
      3 C3          55.5220    33.8940    63.3380 c6         1 Z2D       0.135300
      4 C4          54.6630    32.5900    63.2250 c6         1 Z2D       0.113300
      5 C5          54.3770    32.2720    61.7160 c6         1 Z2D       0.150300
      6 C6          55.6330    31.7900    60.9070 c3         1 Z2D       0.126600
      7 O1          53.8470    35.6090    60.3910 oh         1 Z2D      -0.669000
      8 O2          53.5370    35.3600    63.2230 oh         1 Z2D      -0.679000
      9 O3          55.7470    34.2100    64.7260 oh         1 Z2D      -0.710000
     10 O4          53.4280    32.7820    63.9610 oh         1 Z2D      -0.693000
     11 O5          53.7840    33.4310    61.0600 os         1 Z2D      -0.464000
     12 O6          56.1910    30.5740    61.4330 oh         1 Z2D      -0.724000
     13 H1          55.5490    34.4600    60.5950 h2         1 Z2D       0.004700
     14 HO1         53.0910    35.7930    60.9920 ho         1 Z2D       0.509000
     15 H2          55.4580    35.9580    62.5980 h1         1 Z2D       0.049700
     16 HO2         53.2260    34.4610    63.5240 ho         1 Z2D       0.524000
     17 H3          56.4930    33.7200    62.8510 h1         1 Z2D       0.033700
     18 HO3         54.9080    33.9610    65.1820 ho         1 Z2D       0.515000
     19 H4          55.2320    31.7560    63.6630 h1         1 Z2D       0.045700
     20 HO4         53.0210    31.8890    64.0880 ho         1 Z2D       0.507000
     21 H5          53.6450    31.4540    61.6700 h1         1 Z2D       0.092700
     22 H62         56.4000    32.5740    60.9090 h1         1 Z2D       0.028700
     23 H61         55.3240    31.6370    59.8630 h1         1 Z2D       0.028700
     24 HO6         56.9270    30.3050    60.8330 ho         1 Z2D       0.511000
@<TRIPOS>BOND
     1     1     2 1   
     2     1     7 1   
     3     1    11 1   
     4     1    13 1   
     5     2     3 1   
     6     2     8 1   
     7     2    15 1   
     8     3     4 1   
     9     3     9 1   
    10     3    17 1   
    11     4     5 1   
    12     4    10 1   
    13     4    19 1   
    14     5     6 1   
    15     5    11 1   
    16     5    21 1   
    17     6    12 1   
    18     6    22 1   
    19     6    23 1   
    20     7    14 1   
    21     8    16 1   
    22     9    18 1   
    23    10    20 1   
    24    12    24 1   
@<TRIPOS>SUBSTRUCTURE
     1 Z2D         1 TEMP              0 ****  ****    0 ROOT
