@<TRIPOS>MOLECULE
Z2F
   19    20     1     0     0
SMALL
No Charge or Current Charge


@<TRIPOS>ATOM
      1 N1          14.9250   -46.4040     8.3520 nc         1 Z2F      -0.530100
      2 C4          14.4860   -45.1790     8.0080 cd         1 Z2F       0.398100
      3 C5          16.6890   -44.9400     8.9460 ca         1 Z2F      -0.217000
      4 C6          17.9580   -44.6390     9.4650 ca         1 Z2F       0.048000
      5 O1          20.8360   -46.4440    11.4790 o          1 Z2F      -0.542000
      6 O           20.5010   -43.9510    11.0100 o          1 Z2F      -0.542000
      7 N           21.3550   -45.4700     9.3140 n8         1 Z2F      -1.002100
      8 C           18.7550   -45.6980     9.9470 ca         1 Z2F      -0.261500
      9 S1          15.5470   -43.7770     8.3010 ss         1 Z2F       0.055800
     10 C3          16.1980   -46.2310     8.8890 ca         1 Z2F       0.134400
     11 C2          16.9880   -47.2900     9.3640 ca         1 Z2F      -0.071000
     12 C1          18.2680   -47.0260     9.8930 ca         1 Z2F      -0.033000
     13 H1          13.5170   -44.9970     7.5610 h5         1 Z2F       0.062800
     14 H2          18.3120   -43.6090     9.4910 ha         1 Z2F       0.149000
     15 H3          21.8700   -44.5960     9.3890 hn         1 Z2F       0.474000
     16 H4          22.0340   -46.1470     9.6510 hn         1 Z2F       0.474000
     17 H5          16.6130   -48.3090     9.3240 ha         1 Z2F       0.139000
     18 H6          18.8740   -47.8530    10.2580 ha         1 Z2F       0.138000
     19 S           20.3830   -45.3540    10.6190 sy         1 Z2F       1.125600
@<TRIPOS>BOND
     1     1     2 2   
     2     1    10 1   
     3     2     9 1   
     4     2    13 1   
     5     3     4 ar  
     6     3     9 1   
     7     3    10 ar  
     8     4     8 ar  
     9     4    14 1   
    10     5    19 2   
    11     6    19 2   
    12     7    15 1   
    13     7    16 1   
    14     7    19 1   
    15     8    12 ar  
    16     8    19 1   
    17    10    11 ar  
    18    11    12 ar  
    19    11    17 1   
    20    12    18 1   
@<TRIPOS>SUBSTRUCTURE
     1 Z2F         1 TEMP              0 ****  ****    0 ROOT
