@<TRIPOS>MOLECULE
Z2F
   19    20     1     0     0
SMALL
abcg2


@<TRIPOS>ATOM
      1 N1          15.0330   -46.3750     8.3440 nc         1 Z2F      -0.530100
      2 C4          14.5740   -45.2330     7.9770 cd         1 Z2F       0.398100
      3 C5          16.7590   -44.9160     8.9590 ca         1 Z2F      -0.217000
      4 C6          17.9990   -44.6110     9.4990 ca         1 Z2F       0.048000
      5 O1          20.6880   -46.4060    11.5770 o          1 Z2F      -0.542000
      6 O           20.3550   -43.9580    11.1980 o          1 Z2F      -0.542000
      7 N           21.2690   -45.2880     9.3090 n8         1 Z2F      -1.002100
      8 C           18.7440   -45.6660     9.9910 ca         1 Z2F      -0.261500
      9 S1          15.5840   -43.8540     8.2690 ss         1 Z2F       0.055800
     10 C3          16.2760   -46.2360     8.9080 ca         1 Z2F       0.134400
     11 C2          17.0550   -47.2770     9.4140 ca         1 Z2F      -0.071000
     12 C1          18.2880   -46.9880     9.9580 ca         1 Z2F      -0.033000
     13 H1          13.6090   -45.0990     7.5060 h5         1 Z2F       0.062800
     14 H2          18.3610   -43.5920     9.5330 ha         1 Z2F       0.149000
     15 H3          22.1490   -44.8040     9.4670 hn         1 Z2F       0.474000
     16 H4          21.4410   -46.2150     8.9340 hn         1 Z2F       0.474000
     17 H5          16.6880   -48.2940     9.3800 ha         1 Z2F       0.139000
     18 H6          18.8960   -47.7870    10.3580 ha         1 Z2F       0.138000
     19 S           20.3410   -45.3160    10.6780 sy         1 Z2F       1.125600
@<TRIPOS>BOND
     1     1     2 2   
     2     1    10 1   
     3     2     9 1   
     4     2    13 1   
     5     3     4 ar  
     6     3     9 1   
     7     3    10 ar  
     8     4     8 ar  
     9     4    14 1   
    10     5    19 2   
    11     6    19 2   
    12     7    15 1   
    13     7    16 1   
    14     7    19 1   
    15     8    12 ar  
    16     8    19 1   
    17    10    11 ar  
    18    11    12 ar  
    19    11    17 1   
    20    12    18 1   
@<TRIPOS>SUBSTRUCTURE
     1 Z2F         1 TEMP              0 ****  ****    0 ROOT
