@<TRIPOS>MOLECULE
Z2M
   28    31     1     0     0
SMALL
No Charge or Current Charge


@<TRIPOS>ATOM
      1 C            3.4080     0.3200     0.5340 cc         1 Z2M       0.129900
      2 N           -2.0470    -1.8550    -0.3450 nc         1 Z2M      -0.513100
      3 O            2.0740     0.1800     0.8550 os         1 Z2M      -0.217000
      4 C1           1.3980     1.0150     0.0020 cc         1 Z2M       0.162500
      5 N1          -2.9650    -0.8100    -0.1560 na         1 Z2M      -0.162100
      6 C2          -0.0490     1.2110     0.0460 ca         1 Z2M       0.000500
      7 N2          -2.8630     1.6350     0.1560 nb         1 Z2M      -0.677000
      8 C3          -0.9890     0.1680    -0.0530 ca         1 Z2M      -0.242900
      9 C4          -0.8480    -1.2590    -0.2750 cd         1 Z2M       0.410900
     10 C5          -2.3350     0.4060     0.0020 ca         1 Z2M       0.373500
     11 C6          -1.9910     2.6680     0.2530 ca         1 Z2M       0.378900
     12 C7          -0.5930     2.5010     0.1980 ca         1 Z2M      -0.200000
     13 C8           0.3990    -2.0480    -0.4990 cx         1 Z2M      -0.142000
     14 C9           1.0850    -2.7520     0.6530 cx         1 Z2M      -0.116400
     15 C10          0.4310    -3.5640    -0.4380 cx         1 Z2M      -0.116400
     16 C11          2.2550     1.7030    -0.8080 cd         1 Z2M      -0.155000
     17 C12          3.5470     1.2440    -0.4710 cd         1 Z2M      -0.191000
     18 H            4.1270    -0.2720     1.0850 h4         1 Z2M       0.055100
     19 H6          -2.4250     3.6590     0.3760 h4         1 Z2M       0.023100
     20 H7           0.0540     3.3700     0.2850 ha         1 Z2M       0.128000
     21 H8           1.0420    -1.5890    -1.2440 hc         1 Z2M       0.090700
     22 H9           2.1720    -2.7300     0.6870 hc         1 Z2M       0.075200
     23 H9A          0.6000    -2.7270     1.6260 hc         1 Z2M       0.075200
     24 H10         -0.4810    -4.0990    -0.1860 hc         1 Z2M       0.075200
     25 H10A         1.0790    -4.0840    -1.1400 hc         1 Z2M       0.075200
     26 H11          1.9890     2.4450    -1.5540 ha         1 Z2M       0.144000
     27 H12          4.4850     1.5620    -0.9160 ha         1 Z2M       0.145000
     28 HN1         -3.9710    -0.9530    -0.1550 hn         1 Z2M       0.388000
@<TRIPOS>BOND
     1     1     3 1   
     2     1    17 2   
     3     1    18 1   
     4     2     5 1   
     5     2     9 2   
     6     3     4 1   
     7     4     6 1   
     8     4    16 2   
     9     5    10 1   
    10     5    28 1   
    11     6     8 ar  
    12     6    12 ar  
    13     7    10 ar  
    14     7    11 ar  
    15     8     9 1   
    16     8    10 ar  
    17     9    13 1   
    18    11    12 ar  
    19    11    19 1   
    20    12    20 1   
    21    13    14 1   
    22    13    15 1   
    23    13    21 1   
    24    14    15 1   
    25    14    22 1   
    26    14    23 1   
    27    15    24 1   
    28    15    25 1   
    29    16    17 1   
    30    16    26 1   
    31    17    27 1   
@<TRIPOS>SUBSTRUCTURE
     1 Z2M         1 TEMP              0 ****  ****    0 ROOT
