@<TRIPOS>MOLECULE
Z2M
   28    31     1     0     0
SMALL
abcg2


@<TRIPOS>ATOM
      1 C            3.3890     0.3080     0.2710 cc         1 Z2M       0.129900
      2 N           -1.9810    -1.8180    -0.1810 nc         1 Z2M      -0.513100
      3 O            2.0660     0.1230     0.4130 os         1 Z2M      -0.217000
      4 C1           1.4380     1.1930    -0.1160 cc         1 Z2M       0.162500
      5 N1          -2.8520    -0.8210    -0.0100 na         1 Z2M      -0.162100
      6 C2          -0.0090     1.2460    -0.0640 ca         1 Z2M       0.000500
      7 N2          -2.8490     1.5560     0.1320 nb         1 Z2M      -0.677000
      8 C3          -0.8600     0.1240    -0.0820 ca         1 Z2M      -0.242900
      9 C4          -0.7780    -1.3000    -0.2270 cd         1 Z2M       0.410900
     10 C5          -2.2440     0.3790     0.0310 ca         1 Z2M       0.373500
     11 C6          -2.0240     2.5870     0.1130 ca         1 Z2M       0.378900
     12 C7          -0.6320     2.4850     0.0220 ca         1 Z2M      -0.200000
     13 C8           0.4050    -2.1580    -0.4330 cx         1 Z2M      -0.142000
     14 C9           0.9870    -2.9360     0.7130 cx         1 Z2M      -0.116400
     15 C10          0.2720    -3.6490    -0.3900 cx         1 Z2M      -0.116400
     16 C11          2.3620     2.0720    -0.5970 cd         1 Z2M      -0.155000
     17 C12          3.6350     1.4900    -0.3470 cd         1 Z2M      -0.191000
     18 H            4.0310    -0.4690     0.6520 h4         1 Z2M       0.055100
     19 H6          -2.4750     3.5690     0.1910 h4         1 Z2M       0.023100
     20 H7          -0.0430     3.3910     0.0570 ha         1 Z2M       0.128000
     21 H8           1.1230    -1.7640    -1.1420 hc         1 Z2M       0.090700
     22 H9           2.0650    -3.0140     0.7720 hc         1 Z2M       0.075200
     23 H9A          0.4900    -2.8590     1.6720 hc         1 Z2M       0.075200
     24 H10         -0.7030    -4.0660    -0.1780 hc         1 Z2M       0.075200
     25 H10A         0.8590    -4.2190    -1.0970 hc         1 Z2M       0.075200
     26 H11          2.1570     3.0100    -1.0880 ha         1 Z2M       0.144000
     27 H12          4.6020     1.8960    -0.5940 ha         1 Z2M       0.145000
     28 HN1         -3.8410    -1.0090     0.0250 hn         1 Z2M       0.388000
@<TRIPOS>BOND
     1     1     3 1   
     2     1    17 2   
     3     1    18 1   
     4     2     5 1   
     5     2     9 2   
     6     3     4 1   
     7     4     6 1   
     8     4    16 2   
     9     5    10 1   
    10     5    28 1   
    11     6     8 ar  
    12     6    12 ar  
    13     7    10 ar  
    14     7    11 ar  
    15     8     9 1   
    16     8    10 ar  
    17     9    13 1   
    18    11    12 ar  
    19    11    19 1   
    20    12    20 1   
    21    13    14 1   
    22    13    15 1   
    23    13    21 1   
    24    14    15 1   
    25    14    22 1   
    26    14    23 1   
    27    15    24 1   
    28    15    25 1   
    29    16    17 1   
    30    16    26 1   
    31    17    27 1   
@<TRIPOS>SUBSTRUCTURE
     1 Z2M         1 TEMP              0 ****  ****    0 ROOT
