@<TRIPOS>MOLECULE
Z2O
   56    58     1     0     0
SMALL
No Charge or Current Charge


@<TRIPOS>ATOM
      1 C02         -1.8150    11.4500   -12.1290 c          1 Z2O       0.718000
      2 C03         -1.2380    12.2850   -10.9300 c3         1 Z2O       0.022800
      3 C05          0.6580    13.4460    -9.7780 c6         1 Z2O       0.166800
      4 C06         -0.0030    14.8390    -9.5550 c6         1 Z2O       0.066500
      5 C08         -0.0370    17.1400   -10.6160 c          1 Z2O       0.657100
      6 C10         -1.7010    17.8240   -12.3680 c6         1 Z2O       0.100000
      7 C11         -1.7580    18.4750   -13.7680 c6         1 Z2O      -0.153700
      8 C12         -3.1260    18.2870   -14.4520 c          1 Z2O       0.611100
      9 C15         -4.1320    17.1200   -16.5100 ca         1 Z2O       0.025000
     10 C16         -5.4900    17.4820   -16.3650 ca         1 Z2O      -0.170000
     11 C17         -6.4420    17.0460   -17.3010 ca         1 Z2O       0.214000
     12 C19         -6.0570    16.2460   -18.3930 ca         1 Z2O       0.029000
     13 C21         -4.7100    15.8820   -18.5430 ca         1 Z2O      -0.051000
     14 C22         -3.7560    16.3190   -17.6050 ca         1 Z2O      -0.190000
     15 C23         -1.2560    19.9370   -13.7840 c6         1 Z2O      -0.070400
     16 C24          0.1470    20.0220   -13.1370 c6         1 Z2O      -0.076700
     17 C25          0.6570    21.4900   -13.0950 c3         1 Z2O       0.166600
     18 C27          0.1390    19.3680   -11.7260 c6         1 Z2O       0.101000
     19 C29         -0.2330    15.0290   -12.0710 c6         1 Z2O       0.066500
     20 C30          0.4680    13.6440   -12.1800 c6         1 Z2O       0.166800
     21 F18         -7.7370    17.4050   -17.1430 f          1 Z2O      -0.159000
     22 N04          0.1860    12.7660   -11.0130 n3         1 Z2O      -0.681600
     23 N07         -0.0360    15.7300   -10.7610 n          1 Z2O      -0.402800
     24 N09         -0.3620    17.9610   -11.7190 n          1 Z2O      -0.420800
     25 N14         -3.1070    17.5180   -15.6100 ns         1 Z2O      -0.148000
     26 O1          -1.6030    10.2430   -12.1570 o          1 Z2O      -0.727000
     27 O13         -4.1370    18.7910   -13.9790 o          1 Z2O      -0.542100
     28 O26          2.0080    21.5760   -12.6290 oh         1 Z2O      -0.657000
     29 O28          0.2940    17.6500    -9.5530 o          1 Z2O      -0.646100
     30 O31         -2.4670    12.0320   -12.9870 o          1 Z2O      -0.727000
     31 Cl1         -7.2440    15.6930   -19.5750 cl         1 Z2O      -0.185000
     32 H1          -1.3460    11.6580   -10.0350 h1         1 Z2O       0.017200
     33 H2          -1.9120    13.1400   -10.7830 h1         1 Z2O       0.017200
     34 H3           1.7470    13.5930    -9.8370 h1         1 Z2O       0.048700
     35 H4           0.4770    12.8160    -8.8950 h1         1 Z2O       0.048700
     36 H5           0.5290    15.3350    -8.7320 h1         1 Z2O       0.035700
     37 H6          -1.0380    14.6890    -9.2180 h1         1 Z2O       0.035700
     38 H7          -2.4420    18.3190   -11.7220 h1         1 Z2O       0.077700
     39 H8          -2.0190    16.7790   -12.4380 h1         1 Z2O       0.077700
     40 H9          -1.0430    17.9090   -14.3820 hc         1 Z2O       0.064700
     41 H10         -5.8330    18.0970   -15.5410 ha         1 Z2O       0.178000
     42 H11         -4.4050    15.2640   -19.3840 ha         1 Z2O       0.124000
     43 H12         -2.7150    16.0290   -17.7350 ha         1 Z2O       0.114000
     44 H13         -1.2200    20.3130   -14.8160 hc         1 Z2O       0.044200
     45 H14         -1.9610    20.5790   -13.2360 hc         1 Z2O       0.044200
     46 H15          0.8540    19.4660   -13.7690 hc         1 Z2O       0.065700
     47 H16          0.5870    21.9110   -14.1060 h1         1 Z2O       0.016200
     48 H17         -0.0060    22.0760   -12.4440 h1         1 Z2O       0.016200
     49 H18          1.1620    19.3830   -11.3230 h1         1 Z2O       0.057200
     50 H19         -0.4850    19.9700   -11.0490 h1         1 Z2O       0.057200
     51 H20         -1.3080    14.8660   -12.2210 h1         1 Z2O       0.035700
     52 H21          0.1270    15.6640   -12.8920 h1         1 Z2O       0.035700
     53 H22          0.1630    13.1580   -13.1180 h1         1 Z2O       0.048700
     54 H23          1.5520    13.8150   -12.2580 h1         1 Z2O       0.048700
     55 H25         -2.1900    17.1770   -15.8640 hn         1 Z2O       0.150000
     56 H26          2.2580    22.5260   -12.6530 ho         1 Z2O       0.439000
@<TRIPOS>BOND
     1     1     2 1   
     2     1    26 1   
     3     1    30 1   
     4     2    22 1   
     5     2    32 1   
     6     2    33 1   
     7     3     4 1   
     8     3    22 1   
     9     3    34 1   
    10     3    35 1   
    11     4    23 1   
    12     4    36 1   
    13     4    37 1   
    14     5    23 1   
    15     5    24 1   
    16     5    29 2   
    17     6     7 1   
    18     6    24 1   
    19     6    38 1   
    20     6    39 1   
    21     7     8 1   
    22     7    15 1   
    23     7    40 1   
    24     8    25 1   
    25     8    27 2   
    26     9    10 ar  
    27     9    14 ar  
    28     9    25 1   
    29    10    11 ar  
    30    10    41 1   
    31    11    12 ar  
    32    11    21 1   
    33    12    13 ar  
    34    12    31 1   
    35    13    14 ar  
    36    13    42 1   
    37    14    43 1   
    38    15    16 1   
    39    15    44 1   
    40    15    45 1   
    41    16    17 1   
    42    16    18 1   
    43    16    46 1   
    44    17    28 1   
    45    17    47 1   
    46    17    48 1   
    47    18    24 1   
    48    18    49 1   
    49    18    50 1   
    50    19    20 1   
    51    19    23 1   
    52    19    51 1   
    53    19    52 1   
    54    20    22 1   
    55    20    53 1   
    56    20    54 1   
    57    25    55 1   
    58    28    56 1   
@<TRIPOS>SUBSTRUCTURE
     1 Z2O         1 TEMP              0 ****  ****    0 ROOT
