@<TRIPOS>MOLECULE
Z2O
   56    58     1     0     0
SMALL
abcg2


@<TRIPOS>ATOM
      1 C02         -3.2160    12.9170   -10.7840 c          1 Z2O       0.718000
      2 C03         -1.9220    13.5320   -10.2020 c3         1 Z2O       0.022800
      3 C05          0.4940    13.3950   -10.1150 c6         1 Z2O       0.166800
      4 C06          0.7660    14.8690    -9.7800 c6         1 Z2O       0.066500
      5 C08          0.3570    17.0440   -10.7430 c          1 Z2O       0.657100
      6 C10         -1.5010    17.4270   -12.3290 c6         1 Z2O       0.100000
      7 C11         -1.5320    17.8700   -13.7870 c6         1 Z2O      -0.153700
      8 C12         -2.8300    17.4800   -14.4610 c          1 Z2O       0.611100
      9 C15         -3.6660    16.9270   -16.7410 ca         1 Z2O       0.025000
     10 C16         -5.0160    16.7420   -16.4400 ca         1 Z2O      -0.170000
     11 C17         -5.8840    16.3990   -17.4560 ca         1 Z2O       0.214000
     12 C19         -5.4690    16.2310   -18.7640 ca         1 Z2O       0.029000
     13 C21         -4.1280    16.4200   -19.0600 ca         1 Z2O      -0.051000
     14 C22         -3.2380    16.7650   -18.0620 ca         1 Z2O      -0.190000
     15 C23         -1.3290    19.3890   -13.8610 c6         1 Z2O      -0.070400
     16 C24         -0.0490    19.7980   -13.1360 c6         1 Z2O      -0.076700
     17 C25          0.0740    21.3110   -13.1330 c3         1 Z2O       0.166600
     18 C27         -0.0160    19.2310   -11.7170 c6         1 Z2O       0.101000
     19 C29          0.4300    15.0020   -12.1840 c6         1 Z2O       0.066500
     20 C30         -0.5620    13.8330   -12.2080 c6         1 Z2O       0.166800
     21 F18         -7.1740    16.2200   -17.1630 f          1 Z2O      -0.159000
     22 N04         -0.7000    13.1940   -10.9040 n3         1 Z2O      -0.681600
     23 N07          0.3560    15.6910   -10.9090 n          1 Z2O      -0.402800
     24 N09         -0.2210    17.7950   -11.7470 n          1 Z2O      -0.420800
     25 N14         -2.6980    17.2630   -15.7990 ns         1 Z2O      -0.148000
     26 O1          -3.1230    12.0840   -11.7040 o          1 Z2O      -0.727000
     27 O13         -3.8840    17.3930   -13.8600 o          1 Z2O      -0.542100
     28 O26          1.3130    21.6830   -12.5700 oh         1 Z2O      -0.657000
     29 O28          0.8550    17.5640    -9.7520 o          1 Z2O      -0.646100
     30 O31         -4.2630    13.3190   -10.2360 o          1 Z2O      -0.727000
     31 CL1         -6.6050    15.7910   -19.9820 cl         1 Z2O      -0.185000
     32 H1          -1.8290    13.1560    -9.1770 h1         1 Z2O       0.017200
     33 H2          -2.0790    14.6180   -10.1030 h1         1 Z2O       0.017200
     34 H3           1.3450    12.9740   -10.6590 h1         1 Z2O       0.048700
     35 H4           0.4230    12.8300    -9.1830 h1         1 Z2O       0.048700
     36 H5           1.8270    15.0050    -9.5390 h1         1 Z2O       0.035700
     37 H6           0.1960    15.1670    -8.8990 h1         1 Z2O       0.035700
     38 H7          -2.3100    17.9230   -11.7780 h1         1 Z2O       0.077700
     39 H8          -1.6750    16.3580   -12.2390 h1         1 Z2O       0.077700
     40 H9          -0.6970    17.3880   -14.3090 hc         1 Z2O       0.064700
     41 H10         -5.4000    16.8540   -15.4380 ha         1 Z2O       0.178000
     42 H11         -3.7770    16.2970   -20.0760 ha         1 Z2O       0.124000
     43 H12         -2.1950    16.9080   -18.3140 ha         1 Z2O       0.114000
     44 H13         -1.2870    19.7180   -14.9020 hc         1 Z2O       0.044200
     45 H14         -2.1900    19.8870   -13.4000 hc         1 Z2O       0.044200
     46 H15          0.8010    19.3790   -13.6880 hc         1 Z2O       0.065700
     47 H16         -0.0220    21.6760   -14.1640 h1         1 Z2O       0.016200
     48 H17         -0.7680    21.7340   -12.5670 h1         1 Z2O       0.016200
     49 H18          0.9430    19.4480   -11.2550 h1         1 Z2O       0.057200
     50 H19         -0.7920    19.7220   -11.1100 h1         1 Z2O       0.057200
     51 H20          0.2480    15.6840   -13.0100 h1         1 Z2O       0.035700
     52 H21          1.4540    14.6340   -12.3260 h1         1 Z2O       0.035700
     53 H22         -1.5410    14.1840   -12.5360 h1         1 Z2O       0.048700
     54 H23         -0.2240    13.1120   -12.9610 h1         1 Z2O       0.048700
     55 H25         -1.7630    17.3550   -16.1690 hn         1 Z2O       0.150000
     56 H26          1.3330    22.6410   -12.4920 ho         1 Z2O       0.439000
@<TRIPOS>BOND
     1     1     2 1   
     2     1    26 1   
     3     1    30 1   
     4     2    22 1   
     5     2    32 1   
     6     2    33 1   
     7     3     4 1   
     8     3    22 1   
     9     3    34 1   
    10     3    35 1   
    11     4    23 1   
    12     4    36 1   
    13     4    37 1   
    14     5    23 1   
    15     5    24 1   
    16     5    29 2   
    17     6     7 1   
    18     6    24 1   
    19     6    38 1   
    20     6    39 1   
    21     7     8 1   
    22     7    15 1   
    23     7    40 1   
    24     8    25 1   
    25     8    27 2   
    26     9    10 ar  
    27     9    14 ar  
    28     9    25 1   
    29    10    11 ar  
    30    10    41 1   
    31    11    12 ar  
    32    11    21 1   
    33    12    13 ar  
    34    12    31 1   
    35    13    14 ar  
    36    13    42 1   
    37    14    43 1   
    38    15    16 1   
    39    15    44 1   
    40    15    45 1   
    41    16    17 1   
    42    16    18 1   
    43    16    46 1   
    44    17    28 1   
    45    17    47 1   
    46    17    48 1   
    47    18    24 1   
    48    18    49 1   
    49    18    50 1   
    50    19    20 1   
    51    19    23 1   
    52    19    51 1   
    53    19    52 1   
    54    20    22 1   
    55    20    53 1   
    56    20    54 1   
    57    25    55 1   
    58    28    56 1   
@<TRIPOS>SUBSTRUCTURE
     1 Z2O         1 TEMP              0 ****  ****    0 ROOT
