@<TRIPOS>MOLECULE
Z2T
   38    39     1     0     0
SMALL
abcg2


@<TRIPOS>ATOM
      1 C1           1.6660    -0.9200    -0.4960 ca         1 Z2T       0.130100
      2 O1           1.3580    -2.1160    -1.0380 oh         1 Z2T      -0.546100
      3 C2           0.6940     0.0140    -0.1070 ca         1 Z2T      -0.111300
      4 C3           1.0800     1.2200     0.4540 ca         1 Z2T      -0.087000
      5 C4           2.4270     1.5420     0.6150 ca         1 Z2T       0.113100
      6 O4           2.6920     2.7420     1.1700 os         1 Z2T      -0.340100
      7 C5           3.4000     0.6430     0.2010 ca         1 Z2T      -0.161000
      8 C6           3.0010    -0.5720    -0.3410 ca         1 Z2T       0.112000
      9 CL6          4.2150    -1.7010    -0.8390 cl         1 Z2T      -0.189000
     10 C7           4.0430     3.1040     1.3710 c3         1 Z2T       0.147900
     11 C8          -0.7710    -0.2970    -0.3160 c6         1 Z2T       0.220600
     12 C9          -1.3270    -1.2190     0.7760 c6         1 Z2T       0.144300
     13 O2          -0.6220    -2.4390     0.7040 oh         1 Z2T      -0.747000
     14 C10         -2.8160    -1.4300     0.5550 c6         1 Z2T       0.100300
     15 O3          -3.2990    -2.2050     1.6300 oh         1 Z2T      -0.668000
     16 C11         -3.5410    -0.0920     0.4420 c6         1 Z2T       0.112300
     17 O7          -4.8880    -0.2810     0.0750 oh         1 Z2T      -0.718000
     18 C12         -2.8620     0.7620    -0.6290 c6         1 Z2T       0.170300
     19 O5          -1.4910     0.9050    -0.3160 os         1 Z2T      -0.430000
     20 C13         -3.4600     2.1500    -0.7180 c3         1 Z2T       0.172600
     21 O6          -2.8520     2.8370    -1.7850 oh         1 Z2T      -0.706000
     22 HO1          0.6050    -2.4920    -0.5410 ho         1 Z2T       0.495000
     23 H3           0.3340     1.9420     0.7580 ha         1 Z2T       0.144000
     24 H5           4.4560     0.8530     0.2980 ha         1 Z2T       0.132000
     25 H7           4.5950     3.1650     0.4290 h1         1 Z2T       0.040367
     26 H7A          4.0350     4.0870     1.8350 h1         1 Z2T       0.040367
     27 H7B          4.5580     2.4050     2.0360 h1         1 Z2T       0.040367
     28 H1          -0.8910    -0.8050    -1.2880 h1         1 Z2T       0.061700
     29 H2          -1.1610    -0.7400     1.7520 h1         1 Z2T       0.067700
     30 HO2         -1.0020    -3.0760     1.3200 ho         1 Z2T       0.538000
     31 H8          -2.9440    -1.9660    -0.3980 h1         1 Z2T       0.056700
     32 HO3         -4.0720    -2.6960     1.3380 ho         1 Z2T       0.454000
     33 H4          -3.4670     0.4370     1.4030 h1         1 Z2T       0.057700
     34 HO4         -5.3950    -0.4960     0.8630 ho         1 Z2T       0.511000
     35 H9          -2.9720     0.2630    -1.6060 h1         1 Z2T       0.065700
     36 H6          -4.5400     2.0480    -0.8640 h1         1 Z2T       0.033700
     37 H6'A        -3.3090     2.6670     0.2400 h1         1 Z2T       0.033700
     38 HO6         -3.2730     3.6980    -1.8600 ho         1 Z2T       0.505000
@<TRIPOS>BOND
     1     1     2 1   
     2     1     3 ar  
     3     1     8 ar  
     4     2    22 1   
     5     3     4 ar  
     6     3    11 1   
     7     4     5 ar  
     8     4    23 1   
     9     5     6 1   
    10     5     7 ar  
    11     6    10 1   
    12     7     8 ar  
    13     7    24 1   
    14     8     9 1   
    15    10    25 1   
    16    10    26 1   
    17    10    27 1   
    18    11    12 1   
    19    11    19 1   
    20    11    28 1   
    21    12    13 1   
    22    12    14 1   
    23    12    29 1   
    24    13    30 1   
    25    14    15 1   
    26    14    16 1   
    27    14    31 1   
    28    15    32 1   
    29    16    17 1   
    30    16    18 1   
    31    16    33 1   
    32    17    34 1   
    33    18    19 1   
    34    18    20 1   
    35    18    35 1   
    36    20    21 1   
    37    20    36 1   
    38    20    37 1   
    39    21    38 1   
@<TRIPOS>SUBSTRUCTURE
     1 Z2T         1 TEMP              0 ****  ****    0 ROOT
