@<TRIPOS>MOLECULE
Z2T
   38    39     1     0     0
SMALL
No Charge or Current Charge


@<TRIPOS>ATOM
      1 C1           1.7760    -0.9570    -0.4240 ca         1 Z2T       0.130100
      2 O1           1.4370    -2.2090    -0.8620 oh         1 Z2T      -0.546100
      3 C2           0.7630    -0.0250    -0.0940 ca         1 Z2T      -0.111300
      4 C3           1.1480     1.2390     0.4160 ca         1 Z2T      -0.087000
      5 C4           2.5010     1.5790     0.5780 ca         1 Z2T       0.113100
      6 O4           2.7950     2.8320     1.0780 os         1 Z2T      -0.340100
      7 C5           3.5010     0.6520     0.2260 ca         1 Z2T      -0.161000
      8 C6           3.1380    -0.6090    -0.2700 ca         1 Z2T       0.112000
      9 Cl6          4.4190    -1.7550    -0.6780 cl         1 Z2T      -0.189000
     10 C7           4.1460     3.2830     1.2820 c3         1 Z2T       0.147900
     11 C8          -0.7320    -0.3650    -0.3240 c6         1 Z2T       0.220600
     12 C9          -1.3100    -1.3770     0.7230 c6         1 Z2T       0.144300
     13 O2          -0.6570    -2.6620     0.6750 oh         1 Z2T      -0.747000
     14 C10         -2.8290    -1.5910     0.4670 c6         1 Z2T       0.100300
     15 O3          -3.3880    -2.4730     1.4570 oh         1 Z2T      -0.668000
     16 C11         -3.5870    -0.2330     0.4530 c6         1 Z2T       0.112300
     17 O7          -4.9870    -0.4670     0.1790 oh         1 Z2T      -0.718000
     18 C12         -2.9200     0.6980    -0.6110 c6         1 Z2T       0.170300
     19 O5          -1.5100     0.8570    -0.3000 os         1 Z2T      -0.430000
     20 C13         -3.5680     2.1220    -0.6680 c3         1 Z2T       0.172600
     21 O6          -2.9210     3.0090    -1.6040 oh         1 Z2T      -0.706000
     22 HO1          0.6210    -2.4770    -0.3520 ho         1 Z2T       0.495000
     23 H3           0.4000     1.9790     0.6890 ha         1 Z2T       0.144000
     24 H5           4.5550     0.8850     0.3370 ha         1 Z2T       0.132000
     25 H7           4.7020     3.2900     0.3350 h1         1 Z2T       0.040367
     26 H7A          4.1500     4.3030     1.6860 h1         1 Z2T       0.040367
     27 H7B          4.6710     2.6330     1.9940 h1         1 Z2T       0.040367
     28 H1          -0.8320    -0.8020    -1.3290 h1         1 Z2T       0.061700
     29 H2          -1.1860    -0.9310     1.7220 h1         1 Z2T       0.067700
     30 HO2         -1.2840    -3.2660     1.1510 ho         1 Z2T       0.538000
     31 H8          -2.9420    -2.0430    -0.5310 h1         1 Z2T       0.056700
     32 HO3         -4.3630    -2.3560     1.3780 ho         1 Z2T       0.454000
     33 H4          -3.4700     0.2370     1.4420 h1         1 Z2T       0.057700
     34 HO4         -5.5040     0.2500     0.6190 ho         1 Z2T       0.511000
     35 H9          -3.0130     0.2420    -1.6070 h1         1 Z2T       0.065700
     36 H6          -4.6260     2.0080    -0.9380 h1         1 Z2T       0.033700
     37 H6'A        -3.5340     2.5530     0.3420 h1         1 Z2T       0.033700
     38 HO6         -3.3540     3.8890    -1.5140 ho         1 Z2T       0.505000
@<TRIPOS>BOND
     1     1     2 1   
     2     1     3 ar  
     3     1     8 ar  
     4     2    22 1   
     5     3     4 ar  
     6     3    11 1   
     7     4     5 ar  
     8     4    23 1   
     9     5     6 1   
    10     5     7 ar  
    11     6    10 1   
    12     7     8 ar  
    13     7    24 1   
    14     8     9 1   
    15    10    25 1   
    16    10    26 1   
    17    10    27 1   
    18    11    12 1   
    19    11    19 1   
    20    11    28 1   
    21    12    13 1   
    22    12    14 1   
    23    12    29 1   
    24    13    30 1   
    25    14    15 1   
    26    14    16 1   
    27    14    31 1   
    28    15    32 1   
    29    16    17 1   
    30    16    18 1   
    31    16    33 1   
    32    17    34 1   
    33    18    19 1   
    34    18    20 1   
    35    18    35 1   
    36    20    21 1   
    37    20    36 1   
    38    20    37 1   
    39    21    38 1   
@<TRIPOS>SUBSTRUCTURE
     1 Z2T         1 TEMP              0 ****  ****    0 ROOT
