@<TRIPOS>MOLECULE
Z2V
   57    59     1     0     0
SMALL
abcg2


@<TRIPOS>ATOM
      1 C02        208.0420   175.5460   232.3420 c          1 Z2V       0.580100
      2 C03        208.9290   176.6640   232.8630 c6         1 Z2V      -0.159700
      3 C04        210.1610   176.1520   233.6120 c3         1 Z2V       0.189300
      4 C06        211.2220   177.2460   233.7310 c3         1 Z2V      -0.103400
      5 C07        212.4840   176.8400   234.4940 c6         1 Z2V      -0.050700
      6 C08        213.6730   177.6760   234.0310 c6         1 Z2V      -0.166400
      7 C09        214.9410   177.3760   234.7800 c          1 Z2V       0.578000
      8 C11        213.6070   176.7050   236.7530 c          1 Z2V       0.578000
      9 C12        212.3440   177.0170   236.0030 c6         1 Z2V      -0.166400
     10 C15        208.0870   177.6370   233.6980 c6         1 Z2V      -0.080400
     11 C16        206.8680   178.1950   232.9510 c6         1 Z2V       0.139400
     12 C19        204.4150   180.2700   235.0170 ca         1 Z2V      -0.154600
     13 C20        204.6730   179.8160   236.3100 ca         1 Z2V      -0.074000
     14 C21        204.1360   180.4770   237.4050 ca         1 Z2V      -0.118500
     15 C22        203.3430   181.6020   237.2210 ca         1 Z2V      -0.089000
     16 C23        203.0770   182.0560   235.9350 ca         1 Z2V      -0.118500
     17 C24        203.6020   181.3880   234.8390 ca         1 Z2V      -0.074000
     18 C26        207.3010   179.1120   231.8060 c3         1 Z2V      -0.105100
     19 C27        206.0200   177.0140   232.4610 c6         1 Z2V      -0.078400
     20 C28        206.8050   176.0120   231.6030 c6         1 Z2V      -0.159700
     21 C29        205.9160   174.8670   231.1480 c3         1 Z2V      -0.078100
     22 N10        214.7870   176.9120   236.0690 ns         1 Z2V      -0.485500
     23 N17        206.1300   178.9640   233.9570 ns         1 Z2V      -0.508900
     24 O01        208.3130   174.3750   232.4780 o          1 Z2V      -0.512100
     25 O05        209.7430   175.6460   234.8640 oh         1 Z2V      -0.658000
     26 O13        213.6300   176.3120   237.8970 o          1 Z2V      -0.513500
     27 O14        216.0480   177.5340   234.3170 o          1 Z2V      -0.513500
     28 O25        204.3210   179.6080   232.7450 o          1 Z2V      -0.603100
     29 H2         209.2840   177.1970   231.9710 hc         1 Z2V       0.068700
     30 H3         210.6020   175.3460   233.0120 h1         1 Z2V       0.047700
     31 H4         211.5030   177.5220   232.7090 hc         1 Z2V       0.051700
     32 H5         210.8110   178.1540   234.1850 hc         1 Z2V       0.051700
     33 H6         212.7050   175.7870   234.2790 hc         1 Z2V       0.059700
     34 H7         213.4520   178.7400   234.1750 hc         1 Z2V       0.082200
     35 H8         213.8710   177.5370   232.9680 hc         1 Z2V       0.082200
     36 H11        212.0870   178.0610   236.2190 hc         1 Z2V       0.082200
     37 H12        211.5470   176.4100   236.4240 hc         1 Z2V       0.082200
     38 H13        207.7360   177.1230   234.5970 hc         1 Z2V       0.058700
     39 H14        208.7100   178.4720   234.0310 hc         1 Z2V       0.058700
     40 H15        205.2710   178.9290   236.4760 ha         1 Z2V       0.123000
     41 H16        204.3330   180.1090   238.4030 ha         1 Z2V       0.117500
     42 H17        202.9290   182.1200   238.0760 ha         1 Z2V       0.116000
     43 H18        202.4580   182.9300   235.7860 ha         1 Z2V       0.117500
     44 H19        203.3860   181.7410   233.8400 ha         1 Z2V       0.123000
     45 H20        207.8970   179.9410   232.1910 hc         1 Z2V       0.046367
     46 H21        207.9080   178.5870   231.0690 hc         1 Z2V       0.046367
     47 H22        206.4380   179.5210   231.2850 hc         1 Z2V       0.046367
     48 H23        205.1670   177.3690   231.8830 hc         1 Z2V       0.067700
     49 H24        205.6200   176.4900   233.3350 hc         1 Z2V       0.067700
     50 H25        207.1720   176.5440   230.7160 hc         1 Z2V       0.064700
     51 H26        206.4460   174.1700   230.4990 hc         1 Z2V       0.044033
     52 H27        205.5240   174.3050   231.9970 hc         1 Z2V       0.044033
     53 H28        205.0660   175.2570   230.5880 hc         1 Z2V       0.044033
     54 H29        215.6420   176.7170   236.5800 hn         1 Z2V       0.331500
     55 H31        206.6120   179.1210   234.8280 hn         1 Z2V       0.314500
     56 H33        210.2920   174.8930   235.0930 ho         1 Z2V       0.452000
     57 C18        204.9470   179.5810   233.7960 c          1 Z2V       0.617700
@<TRIPOS>BOND
     1     1     2 1   
     2     1    20 1   
     3     1    24 2   
     4     2     3 1   
     5     2    10 1   
     6     2    29 1   
     7     3     4 1   
     8     3    25 1   
     9     3    30 1   
    10     4     5 1   
    11     4    31 1   
    12     4    32 1   
    13     5     6 1   
    14     5     9 1   
    15     5    33 1   
    16     6     7 1   
    17     6    34 1   
    18     6    35 1   
    19     7    22 1   
    20     7    27 2   
    21     8     9 1   
    22     8    22 1   
    23     8    26 2   
    24     9    36 1   
    25     9    37 1   
    26    10    11 1   
    27    10    38 1   
    28    10    39 1   
    29    11    18 1   
    30    11    19 1   
    31    11    23 1   
    32    12    13 ar  
    33    12    17 ar  
    34    12    57 1   
    35    13    14 ar  
    36    13    40 1   
    37    14    15 ar  
    38    14    41 1   
    39    15    16 ar  
    40    15    42 1   
    41    16    17 ar  
    42    16    43 1   
    43    17    44 1   
    44    18    45 1   
    45    18    46 1   
    46    18    47 1   
    47    19    20 1   
    48    19    48 1   
    49    19    49 1   
    50    20    21 1   
    51    20    50 1   
    52    21    51 1   
    53    21    52 1   
    54    21    53 1   
    55    22    54 1   
    56    23    55 1   
    57    23    57 1   
    58    25    56 1   
    59    28    57 2   
@<TRIPOS>SUBSTRUCTURE
     1 Z2V         1 TEMP              0 ****  ****    0 ROOT
