@<TRIPOS>MOLECULE
Z2V
   57    59     1     0     0
SMALL
No Charge or Current Charge


@<TRIPOS>ATOM
      1 C02        208.0730   175.4830   232.4880 c          1 Z2V       0.580100
      2 C03        208.9290   176.6590   233.0070 c6         1 Z2V      -0.159700
      3 C04        210.1910   176.1770   233.7930 c3         1 Z2V       0.189300
      4 C06        211.1890   177.3190   234.1340 c3         1 Z2V      -0.103400
      5 C07        212.6610   176.8970   234.4560 c6         1 Z2V      -0.050700
      6 C08        213.5730   178.1470   234.5780 c6         1 Z2V      -0.166400
      7 C09        215.0010   177.8360   235.0350 c          1 Z2V       0.578000
      8 C11        214.2490   175.7990   236.1880 c          1 Z2V       0.578000
      9 C12        212.8020   176.0230   235.7330 c6         1 Z2V      -0.166400
     10 C15        208.0480   177.7160   233.7540 c6         1 Z2V      -0.080400
     11 C16        206.7880   178.1960   232.9640 c6         1 Z2V       0.139400
     12 C19        204.2870   180.5090   234.8450 ca         1 Z2V      -0.154600
     13 C20        204.9090   180.5070   236.1200 ca         1 Z2V      -0.074000
     14 C21        204.3660   181.2510   237.1820 ca         1 Z2V      -0.118500
     15 C22        203.1990   182.0070   236.9940 ca         1 Z2V      -0.089000
     16 C23        202.5730   182.0200   235.7390 ca         1 Z2V      -0.118500
     17 C24        203.1120   181.2780   234.6730 ca         1 Z2V      -0.074000
     18 C26        207.2100   179.0900   231.7520 c3         1 Z2V      -0.105100
     19 C27        205.9680   176.9430   232.5210 c6         1 Z2V      -0.078400
     20 C28        206.7920   175.8890   231.7220 c6         1 Z2V      -0.159700
     21 C29        205.9370   174.6670   231.2750 c3         1 Z2V      -0.078100
     22 N10        215.1820   176.6960   235.7610 ns         1 Z2V      -0.485500
     23 N17        205.9840   178.9860   233.9160 ns         1 Z2V      -0.508900
     24 O01        208.3610   174.3120   232.7100 o          1 Z2V      -0.512100
     25 O05        209.8010   175.5080   234.9960 oh         1 Z2V      -0.658000
     26 O13        214.5750   174.8260   236.8470 o          1 Z2V      -0.513500
     27 O14        215.9500   178.5350   234.7200 o          1 Z2V      -0.513500
     28 O25        204.2890   179.7300   232.5780 o          1 Z2V      -0.603100
     29 H2         209.2790   177.1700   232.1030 hc         1 Z2V       0.068700
     30 H3         210.7240   175.4740   233.1360 h1         1 Z2V       0.047700
     31 H4         211.2150   178.0000   233.2750 hc         1 Z2V       0.051700
     32 H5         210.7830   177.9090   234.9650 hc         1 Z2V       0.051700
     33 H6         213.0130   176.3070   233.5970 hc         1 Z2V       0.059700
     34 H7         213.1500   178.7830   235.3670 hc         1 Z2V       0.082200
     35 H8         213.6020   178.7560   233.6650 hc         1 Z2V       0.082200
     36 H11        212.3140   176.5580   236.5590 hc         1 Z2V       0.082200
     37 H12        212.3020   175.0500   235.6550 hc         1 Z2V       0.082200
     38 H13        207.7240   177.2800   234.7100 hc         1 Z2V       0.058700
     39 H14        208.6590   178.5900   234.0200 hc         1 Z2V       0.058700
     40 H15        205.8150   179.9360   236.3100 ha         1 Z2V       0.123000
     41 H16        204.8530   181.2410   238.1550 ha         1 Z2V       0.117500
     42 H17        202.7820   182.5820   237.8180 ha         1 Z2V       0.116000
     43 H18        201.6680   182.6050   235.5890 ha         1 Z2V       0.117500
     44 H19        202.6080   181.3030   233.7090 ha         1 Z2V       0.123000
     45 H20        207.6970   180.0110   232.0940 hc         1 Z2V       0.046367
     46 H21        207.9110   178.5880   231.0780 hc         1 Z2V       0.046367
     47 H22        206.3520   179.3810   231.1370 hc         1 Z2V       0.046367
     48 H23        205.1060   177.2600   231.9190 hc         1 Z2V       0.067700
     49 H24        205.5460   176.4580   233.4120 hc         1 Z2V       0.067700
     50 H25        207.1350   176.4170   230.8230 hc         1 Z2V       0.064700
     51 H26        206.5180   173.9820   230.6460 hc         1 Z2V       0.044033
     52 H27        205.5680   174.0990   232.1380 hc         1 Z2V       0.044033
     53 H28        205.0650   174.9870   230.6920 hc         1 Z2V       0.044033
     54 H29        216.1320   176.5040   236.0400 hn         1 Z2V       0.331500
     55 H31        206.3330   179.0440   234.8620 hn         1 Z2V       0.314500
     56 H33        209.3380   174.6870   234.7160 ho         1 Z2V       0.452000
     57 C18        204.8390   179.7220   233.6710 c          1 Z2V       0.617700
@<TRIPOS>BOND
     1     1     2 1   
     2     1    20 1   
     3     1    24 2   
     4     2     3 1   
     5     2    10 1   
     6     2    29 1   
     7     3     4 1   
     8     3    25 1   
     9     3    30 1   
    10     4     5 1   
    11     4    31 1   
    12     4    32 1   
    13     5     6 1   
    14     5     9 1   
    15     5    33 1   
    16     6     7 1   
    17     6    34 1   
    18     6    35 1   
    19     7    22 1   
    20     7    27 2   
    21     8     9 1   
    22     8    22 1   
    23     8    26 2   
    24     9    36 1   
    25     9    37 1   
    26    10    11 1   
    27    10    38 1   
    28    10    39 1   
    29    11    18 1   
    30    11    19 1   
    31    11    23 1   
    32    12    13 ar  
    33    12    17 ar  
    34    12    57 1   
    35    13    14 ar  
    36    13    40 1   
    37    14    15 ar  
    38    14    41 1   
    39    15    16 ar  
    40    15    42 1   
    41    16    17 ar  
    42    16    43 1   
    43    17    44 1   
    44    18    45 1   
    45    18    46 1   
    46    18    47 1   
    47    19    20 1   
    48    19    48 1   
    49    19    49 1   
    50    20    21 1   
    51    20    50 1   
    52    21    51 1   
    53    21    52 1   
    54    21    53 1   
    55    22    54 1   
    56    23    55 1   
    57    23    57 1   
    58    25    56 1   
    59    28    57 2   
@<TRIPOS>SUBSTRUCTURE
     1 Z2V         1 TEMP              0 ****  ****    0 ROOT
