@<TRIPOS>MOLECULE
Z2Z
   23    24     1     0     0
SMALL
No Charge or Current Charge


@<TRIPOS>ATOM
      1 C4          27.0210   -38.8980     7.0570 ca         1 Z2Z      -0.035000
      2 C5          27.4910   -39.8040     8.0240 ca         1 Z2Z      -0.103000
      3 C6          27.8160   -41.1160     7.6320 ca         1 Z2Z      -0.045000
      4 C7          28.2750   -42.0080     8.6090 ca         1 Z2Z      -0.173000
      5 C8          28.3910   -41.5620     9.9310 ca         1 Z2Z       0.385900
      6 O1          28.7730   -37.8850    11.9760 o          1 Z2Z      -0.524500
      7 O           27.0150   -36.1020    11.5020 o          1 Z2Z      -0.524500
      8 C           26.2390   -38.4530    12.3600 c3         1 Z2Z      -0.327100
      9 C1          27.3000   -38.0880     9.7430 ca         1 Z2Z      -0.243500
     10 C9          27.6370   -39.4150     9.3850 ca         1 Z2Z       0.342000
     11 N           28.0790   -40.3010    10.3100 nb         1 Z2Z      -0.692000
     12 C3          26.6860   -37.5920     7.4300 ca         1 Z2Z      -0.136000
     13 C2          26.8230   -37.1870     8.7650 ca         1 Z2Z       0.020000
     14 H1          26.9130   -39.2050     6.0190 ha         1 Z2Z       0.120000
     15 H2          27.7140   -41.4370     6.5980 ha         1 Z2Z       0.122000
     16 H3          28.5380   -43.0310     8.3530 ha         1 Z2Z       0.130000
     17 H4          28.7430   -42.2320    10.7140 h4         1 Z2Z       0.026100
     18 H5          26.2510   -38.1070    13.3990 h1         1 Z2Z       0.105033
     19 H6          25.2580   -38.2780    11.9060 h1         1 Z2Z       0.105033
     20 H7          26.5080   -39.5120    12.3060 h1         1 Z2Z       0.105033
     21 H8          26.3210   -36.8900     6.6840 ha         1 Z2Z       0.125000
     22 H9          26.5560   -36.1640     9.0270 ha         1 Z2Z       0.150000
     23 S           27.4570   -37.5030    11.4440 sy         1 Z2Z       1.068500
@<TRIPOS>BOND
     1     1     2 ar  
     2     1    12 ar  
     3     1    14 1   
     4     2     3 ar  
     5     2    10 ar  
     6     3     4 ar  
     7     3    15 1   
     8     4     5 ar  
     9     4    16 1   
    10     5    11 ar  
    11     5    17 1   
    12     6    23 2   
    13     7    23 2   
    14     8    18 1   
    15     8    19 1   
    16     8    20 1   
    17     8    23 1   
    18     9    10 ar  
    19     9    13 ar  
    20     9    23 1   
    21    10    11 ar  
    22    12    13 ar  
    23    12    21 1   
    24    13    22 1   
@<TRIPOS>SUBSTRUCTURE
     1 Z2Z         1 TEMP              0 ****  ****    0 ROOT
