@<TRIPOS>MOLECULE
Z2Z
   23    24     1     0     0
SMALL
abcg2


@<TRIPOS>ATOM
      1 C4          27.0570   -38.8520     7.0430 ca         1 Z2Z      -0.035000
      2 C5          27.4900   -39.7970     8.0000 ca         1 Z2Z      -0.103000
      3 C6          27.8360   -41.1210     7.6570 ca         1 Z2Z      -0.045000
      4 C7          28.2380   -41.9830     8.6360 ca         1 Z2Z      -0.173000
      5 C8          28.2890   -41.5130     9.9630 ca         1 Z2Z       0.385900
      6 O1          28.7970   -37.7550    11.8330 o          1 Z2Z      -0.524500
      7 O           26.9190   -36.1520    11.4370 o          1 Z2Z      -0.524500
      8 C           26.3150   -38.5230    12.3650 c3         1 Z2Z      -0.327100
      9 C1          27.2370   -38.0980     9.7200 ca         1 Z2Z      -0.243500
     10 C9          27.5890   -39.4260     9.3630 ca         1 Z2Z       0.342000
     11 N           27.9800   -40.2940    10.3190 nb         1 Z2Z      -0.692000
     12 C3          26.7220   -37.5840     7.4240 ca         1 Z2Z      -0.136000
     13 C2          26.8110   -37.2020     8.7760 ca         1 Z2Z       0.020000
     14 H1          26.9930   -39.1510     6.0040 ha         1 Z2Z       0.120000
     15 H2          27.7750   -41.4360     6.6220 ha         1 Z2Z       0.122000
     16 H3          28.5110   -43.0050     8.4160 ha         1 Z2Z       0.130000
     17 H4          28.5970   -42.1850    10.7570 h4         1 Z2Z       0.026100
     18 H5          26.3560   -38.1380    13.3840 h1         1 Z2Z       0.105033
     19 H6          25.3070   -38.4160    11.9690 h1         1 Z2Z       0.105033
     20 H7          26.6340   -39.5590    12.3360 h1         1 Z2Z       0.105033
     21 H8          26.3860   -36.8610     6.6930 ha         1 Z2Z       0.125000
     22 H9          26.5410   -36.1940     9.0590 ha         1 Z2Z       0.150000
     23 S           27.4230   -37.5250    11.3980 sy         1 Z2Z       1.068500
@<TRIPOS>BOND
     1     1     2 ar  
     2     1    12 ar  
     3     1    14 1   
     4     2     3 ar  
     5     2    10 ar  
     6     3     4 ar  
     7     3    15 1   
     8     4     5 ar  
     9     4    16 1   
    10     5    11 ar  
    11     5    17 1   
    12     6    23 2   
    13     7    23 2   
    14     8    18 1   
    15     8    19 1   
    16     8    20 1   
    17     8    23 1   
    18     9    10 ar  
    19     9    13 ar  
    20     9    23 1   
    21    10    11 ar  
    22    12    13 ar  
    23    12    21 1   
    24    13    22 1   
@<TRIPOS>SUBSTRUCTURE
     1 Z2Z         1 TEMP              0 ****  ****    0 ROOT
