@<TRIPOS>MOLECULE
Z30
   37    38     1     0     0
SMALL
bcc


@<TRIPOS>ATOM
      1 N1           2.3950    -1.5950    -0.0070 nc         1 Z30      -0.530800
      2 N2           1.3710    -2.4280    -0.0030 na         1 Z30       0.017400
      3 C3           0.1800    -1.8000     0.0350 cc         1 Z30      -0.111600
      4 C4          -1.1690    -2.4190     0.0670 c6         1 Z30      -0.009100
      5 C5          -2.1660    -1.3560     0.5330 c6         1 Z30      -0.068400
      6 C6          -1.9960    -0.0370    -0.2340 c6         1 Z30      -0.052700
      7 C7          -3.1760     0.9480    -0.0290 c3         1 Z30      -0.039000
      8 C8          -3.4450     1.2140     1.4550 c3         1 Z30      -0.085767
      9 C9          -2.8790     2.2810    -0.7230 c3         1 Z30      -0.085767
     10 C10         -4.4460     0.3650    -0.6570 c3         1 Z30      -0.085767
     11 C11         -0.6240     0.5890     0.0740 c6         1 Z30       0.005900
     12 C12          0.4470    -0.4520     0.0520 cd         1 Z30      -0.193600
     13 C13          1.8550    -0.3830     0.0270 cd         1 Z30       0.262800
     14 C14          2.6950     0.8360     0.0430 c          1 Z30       0.621600
     15 N15          4.0170     0.5960    -0.0370 ns         1 Z30      -0.470300
     16 N16          4.9340     1.6290    -0.0210 n8         1 Z30      -0.610800
     17 O17          2.1930     1.9460     0.1230 o          1 Z30      -0.568100
     18 HN2          1.5390    -3.4220    -0.0200 hn         1 Z30       0.320700
     19 H4          -1.4450    -2.7830    -0.9280 hc         1 Z30       0.051700
     20 H4A         -1.1900    -3.2840     0.7340 hc         1 Z30       0.051700
     21 H5          -3.1760    -1.7480     0.4110 hc         1 Z30       0.047700
     22 H5A         -2.0240    -1.1810     1.6040 hc         1 Z30       0.047700
     23 H6          -1.9920    -0.2870    -1.3050 hc         1 Z30       0.045700
     24 H8          -2.5620     1.5920     1.9740 hc         1 Z30       0.033922
     25 H8A         -4.2330     1.9630     1.5690 hc         1 Z30       0.033922
     26 H8B         -3.7770     0.3150     1.9760 hc         1 Z30       0.033922
     27 H9          -2.6210     2.1380    -1.7750 hc         1 Z30       0.033922
     28 H9A         -3.7560     2.9290    -0.6820 hc         1 Z30       0.033922
     29 H9B         -2.0580     2.8220    -0.2490 hc         1 Z30       0.033922
     30 H10         -4.7720    -0.5470    -0.1550 hc         1 Z30       0.033922
     31 H10A        -5.2690     1.0810    -0.5900 hc         1 Z30       0.033922
     32 H10B        -4.2970     0.1310    -1.7130 hc         1 Z30       0.033922
     33 H11         -0.3940     1.3650    -0.6560 hc         1 Z30       0.065700
     34 H11A        -0.6370     1.0900     1.0470 hc         1 Z30       0.065700
     35 HN15         4.3360    -0.3610    -0.0990 hn         1 Z30       0.319500
     36 HN16         5.5590     1.5070     0.7650 hn         1 Z30       0.340800
     37 HN1A         5.4940     1.5880    -0.8640 hn         1 Z30       0.340800
@<TRIPOS>BOND
     1     1     2 1   
     2     1    13 2   
     3     2     3 1   
     4     2    18 1   
     5     3     4 1   
     6     3    12 2   
     7     4     5 1   
     8     4    19 1   
     9     4    20 1   
    10     5     6 1   
    11     5    21 1   
    12     5    22 1   
    13     6     7 1   
    14     6    11 1   
    15     6    23 1   
    16     7     8 1   
    17     7     9 1   
    18     7    10 1   
    19     8    24 1   
    20     8    25 1   
    21     8    26 1   
    22     9    27 1   
    23     9    28 1   
    24     9    29 1   
    25    10    30 1   
    26    10    31 1   
    27    10    32 1   
    28    11    12 1   
    29    11    33 1   
    30    11    34 1   
    31    12    13 1   
    32    13    14 1   
    33    14    15 1   
    34    14    17 2   
    35    15    16 1   
    36    15    35 1   
    37    16    36 1   
    38    16    37 1   
@<TRIPOS>SUBSTRUCTURE
     1 Z30         1 TEMP              0 ****  ****    0 ROOT
