@<TRIPOS>MOLECULE
Z30
   37    38     1     0     0
SMALL
No Charge or Current Charge


@<TRIPOS>ATOM
      1 N1           2.4820    -1.6350    -0.0240 nc         1 Z30      -0.530800
      2 N2           1.4240    -2.5330    -0.0290 na         1 Z30       0.017800
      3 C3           0.1840    -1.9100     0.0060 cc         1 Z30      -0.162300
      4 C4          -1.1940    -2.5110     0.0190 c6         1 Z30      -0.009100
      5 C5          -2.2250    -1.4430     0.4740 c6         1 Z30      -0.068400
      6 C6          -2.0190    -0.0680    -0.2550 c6         1 Z30      -0.052700
      7 C7          -3.1960     0.9770    -0.0240 c3         1 Z30      -0.039000
      8 C8          -3.3920     1.3340     1.4780 c3         1 Z30      -0.085767
      9 C9          -2.9180     2.2970    -0.8000 c3         1 Z30      -0.085767
     10 C10         -4.5460     0.4170    -0.5600 c3         1 Z30      -0.085767
     11 C11         -0.5910     0.5000     0.0710 c6         1 Z30       0.005900
     12 C12          0.4690    -0.5830     0.0240 cd         1 Z30      -0.128300
     13 C13          1.8850    -0.4390     0.0140 cd         1 Z30       0.197500
     14 C14          2.6550     0.8630     0.0470 c          1 Z30       0.554600
     15 N15          4.0450     0.6820     0.0230 ns         1 Z30      -0.403300
     16 N16          5.0420     1.7520     0.0460 n8         1 Z30      -0.721200
     17 O17          2.1480     1.9820     0.0920 o          1 Z30      -0.568100
     18 HN2          1.5860    -3.5400    -0.0550 hn         1 Z30       0.371000
     19 H4          -1.4580    -2.8700    -0.9860 hc         1 Z30       0.051700
     20 H4A         -1.2420    -3.3840     0.6840 hc         1 Z30       0.051700
     21 H5          -3.2290    -1.8460     0.2980 hc         1 Z30       0.047700
     22 H5A         -2.1340    -1.3020     1.5600 hc         1 Z30       0.047700
     23 H6          -2.0300    -0.2820    -1.3340 hc         1 Z30       0.045700
     24 H8          -2.4960     1.7970     1.9060 hc         1 Z30       0.033922
     25 H8A         -4.2160     2.0470     1.6020 hc         1 Z30       0.033922
     26 H8B         -3.6350     0.4470     2.0730 hc         1 Z30       0.033922
     27 H9          -2.7260     2.0950    -1.8610 hc         1 Z30       0.033922
     28 H9A         -3.7740     2.9800    -0.7390 hc         1 Z30       0.033922
     29 H9B         -2.0520     2.8320    -0.3920 hc         1 Z30       0.033922
     30 H10         -4.9050    -0.4270     0.0390 hc         1 Z30       0.033922
     31 H10A        -5.3310     1.1830    -0.5300 hc         1 Z30       0.033922
     32 H10B        -4.4480     0.0820    -1.6000 hc         1 Z30       0.033922
     33 H11         -0.3370     1.2910    -0.6460 hc         1 Z30       0.065700
     34 H11A        -0.5780     0.9640     1.0650 hc         1 Z30       0.065700
     35 HN15         4.3490    -0.2950    -0.0140 hn         1 Z30       0.319500
     36 HN16         5.6660     1.6660     0.8620 hn         1 Z30       0.396000
     37 HN1A         5.6460     1.7210    -0.7900 hn         1 Z30       0.396000
@<TRIPOS>BOND
     1     1     2 1   
     2     1    13 2   
     3     2     3 1   
     4     2    18 1   
     5     3     4 1   
     6     3    12 2   
     7     4     5 1   
     8     4    19 1   
     9     4    20 1   
    10     5     6 1   
    11     5    21 1   
    12     5    22 1   
    13     6     7 1   
    14     6    11 1   
    15     6    23 1   
    16     7     8 1   
    17     7     9 1   
    18     7    10 1   
    19     8    24 1   
    20     8    25 1   
    21     8    26 1   
    22     9    27 1   
    23     9    28 1   
    24     9    29 1   
    25    10    30 1   
    26    10    31 1   
    27    10    32 1   
    28    11    12 1   
    29    11    33 1   
    30    11    34 1   
    31    12    13 1   
    32    13    14 1   
    33    14    15 1   
    34    14    17 2   
    35    15    16 1   
    36    15    35 1   
    37    16    36 1   
    38    16    37 1   
@<TRIPOS>SUBSTRUCTURE
     1 Z30         1 TEMP              0 ****  ****    0 ROOT
