@<TRIPOS>MOLECULE
Z31
   37    39     1     0     0
SMALL
No Charge or Current Charge


@<TRIPOS>ATOM
      1 C1          -6.1980     2.5750    -1.2460 c2         1 Z31      -0.303000
      2 C2          -5.8090     2.1900    -0.0170 c2         1 Z31      -0.247200
      3 C3          -5.0810     0.9100     0.3170 c3         1 Z31       0.258000
      4 N4          -3.7340     1.0140    -0.2330 nu         1 Z31      -0.909100
      5 C5          -2.7730     0.0540    -0.2230 cc         1 Z31       0.774300
      6 S6          -1.2330     0.2300    -1.0310 ss         1 Z31      -0.095400
      7 C7          -0.8720    -1.3870    -0.4810 cc         1 Z31      -0.473600
      8 C8          -1.8890    -1.8410     0.2960 cd         1 Z31       0.698900
      9 N9          -2.9880    -1.0650     0.4280 nd         1 Z31      -0.823000
     10 N10         -1.9590    -2.9740     0.9600 nv         1 Z31      -1.049900
     11 C11          0.4340    -2.0580    -0.5620 c          1 Z31       0.646300
     12 C12          1.6800    -1.2080    -0.4430 ca         1 Z31      -0.140600
     13 C13          1.7040    -0.0120     0.3120 ca         1 Z31      -0.071000
     14 C14          2.8840     0.7490     0.4150 ca         1 Z31      -0.045000
     15 C15          4.0620     0.3130    -0.2290 ca         1 Z31      -0.025000
     16 C16          4.0520    -0.8860    -0.9620 ca         1 Z31      -0.109000
     17 C17          2.8730    -1.6430    -1.0620 ca         1 Z31      -0.068000
     18 C18          2.8950     1.9430     1.1620 ca         1 Z31      -0.094000
     19 C19          4.0750     2.7000     1.2620 ca         1 Z31      -0.112000
     20 C20          5.2470     2.2670     0.6190 ca         1 Z31      -0.104000
     21 C21          5.2420     1.0750    -0.1250 ca         1 Z31      -0.101000
     22 O22          0.5140    -3.2810    -0.5730 o          1 Z31      -0.603100
     23 H1          -6.0070     1.9610    -2.1280 ha         1 Z31       0.163500
     24 H1A         -6.7230     3.5170    -1.4100 ha         1 Z31       0.163500
     25 H2          -6.0140     2.8170     0.8530 ha         1 Z31       0.189000
     26 H3          -5.0440     0.7680     1.4070 h1         1 Z31       0.065700
     27 H3A         -5.6120     0.0510    -0.1190 h1         1 Z31       0.065700
     28 HN4         -3.5170     1.8200    -0.8110 hn         1 Z31       0.505000
     29 HN10        -1.3390    -3.7020     0.6220 hn         1 Z31       0.515500
     30 HN1A        -2.8970    -3.2600     1.2050 hn         1 Z31       0.515500
     31 H13          0.8150     0.3190     0.8420 ha         1 Z31       0.122000
     32 H16          4.9570    -1.2340    -1.4550 ha         1 Z31       0.115000
     33 H17          2.8830    -2.5700    -1.6330 ha         1 Z31       0.126000
     34 H18          1.9930     2.2860     1.6630 ha         1 Z31       0.113000
     35 H19          4.0810     3.6230     1.8380 ha         1 Z31       0.112000
     36 H20          6.1600     2.8540     0.6970 ha         1 Z31       0.112000
     37 H21          6.1530     0.7440    -0.6180 ha         1 Z31       0.113000
@<TRIPOS>BOND
     1     1     2 2   
     2     1    23 1   
     3     1    24 1   
     4     2     3 1   
     5     2    25 1   
     6     3     4 1   
     7     3    26 1   
     8     3    27 1   
     9     4     5 1   
    10     4    28 1   
    11     5     6 1   
    12     5     9 2   
    13     6     7 1   
    14     7     8 2   
    15     7    11 1   
    16     8     9 1   
    17     8    10 1   
    18    10    29 1   
    19    10    30 1   
    20    11    12 1   
    21    11    22 2   
    22    12    13 ar  
    23    12    17 ar  
    24    13    14 ar  
    25    13    31 1   
    26    14    15 ar  
    27    14    18 ar  
    28    15    16 ar  
    29    15    21 ar  
    30    16    17 ar  
    31    16    32 1   
    32    17    33 1   
    33    18    19 ar  
    34    18    34 1   
    35    19    20 ar  
    36    19    35 1   
    37    20    21 ar  
    38    20    36 1   
    39    21    37 1   
@<TRIPOS>SUBSTRUCTURE
     1 Z31         1 TEMP              0 ****  ****    0 ROOT
