@<TRIPOS>MOLECULE
Z31
   37    39     1     0     0
SMALL
bcc


@<TRIPOS>ATOM
      1 C1          -6.4980     2.3000     0.2740 c2         1 Z31      -0.203000
      2 C2          -5.6270     1.3040     0.1830 c2         1 Z31      -0.197200
      3 C3          -5.0660     0.8060    -1.1150 c3         1 Z31       0.258000
      4 N4          -3.6220     0.9490    -1.1850 nu         1 Z31      -0.853900
      5 C5          -2.7850     0.0800    -0.6280 cc         1 Z31       0.774300
      6 S6          -1.0670     0.3520    -0.6600 ss         1 Z31      -0.240300
      7 C7          -0.8530    -1.1650     0.2110 cc         1 Z31      -0.394000
      8 C8          -2.1240    -1.7300     0.4220 cd         1 Z31       0.764200
      9 N9          -3.1790    -1.0210    -0.0380 nd         1 Z31      -0.823000
     10 N10         -2.3470    -2.8870     1.0410 nv         1 Z31      -0.939500
     11 C11          0.3890    -1.7620     0.5400 c          1 Z31       0.646300
     12 C12          1.6470    -1.0150     0.2390 ca         1 Z31      -0.140600
     13 C13          1.8180     0.2940     0.6110 ca         1 Z31      -0.089000
     14 C14          3.0320     0.9740     0.3560 ca         1 Z31      -0.045000
     15 C15          4.0820     0.2850    -0.3030 ca         1 Z31      -0.025000
     16 C16          3.8880    -1.0700    -0.6640 ca         1 Z31      -0.127000
     17 C17          2.7120    -1.7070    -0.3880 ca         1 Z31      -0.086000
     18 C18          3.2230     2.3230     0.7350 ca         1 Z31      -0.112000
     19 C19          4.4020     2.9610     0.4600 ca         1 Z31      -0.130000
     20 C20          5.4440     2.2790    -0.2020 ca         1 Z31      -0.122000
     21 C21          5.2880     0.9700    -0.5730 ca         1 Z31      -0.119000
     22 O22          0.4740    -2.8910     1.0410 o          1 Z31      -0.603100
     23 H1          -6.8570     2.8260    -0.6040 ha         1 Z31       0.113500
     24 H1A         -6.8890     2.6260     1.2290 ha         1 Z31       0.113500
     25 H2          -5.2840     0.7970     1.0800 ha         1 Z31       0.139000
     26 H3          -5.3140    -0.2460    -1.2610 h1         1 Z31       0.065700
     27 H3A         -5.4880     1.3590    -1.9530 h1         1 Z31       0.065700
     28 HN4         -3.2590     1.8230    -1.5300 hn         1 Z31       0.449800
     29 HN10        -1.5690    -3.4610     1.3200 hn         1 Z31       0.460300
     30 HN1A        -3.2810    -3.2530     1.0960 hn         1 Z31       0.460300
     31 H13          1.0330     0.8270     1.1370 ha         1 Z31       0.140000
     32 H16          4.6890    -1.6010    -1.1640 ha         1 Z31       0.133000
     33 H17          2.5800    -2.7450    -0.6660 ha         1 Z31       0.144000
     34 H18          2.4210     2.8450     1.2430 ha         1 Z31       0.131000
     35 H19          4.5400     3.9940     0.7500 ha         1 Z31       0.130000
     36 H20          6.3710     2.7950    -0.4150 ha         1 Z31       0.130000
     37 H21          6.0900     0.4450    -1.0790 ha         1 Z31       0.131000
@<TRIPOS>BOND
     1     1     2 2   
     2     1    23 1   
     3     1    24 1   
     4     2     3 1   
     5     2    25 1   
     6     3     4 1   
     7     3    26 1   
     8     3    27 1   
     9     4     5 1   
    10     4    28 1   
    11     5     6 1   
    12     5     9 2   
    13     6     7 1   
    14     7     8 2   
    15     7    11 1   
    16     8     9 1   
    17     8    10 1   
    18    10    29 1   
    19    10    30 1   
    20    11    12 1   
    21    11    22 2   
    22    12    13 ar  
    23    12    17 ar  
    24    13    14 ar  
    25    13    31 1   
    26    14    15 ar  
    27    14    18 ar  
    28    15    16 ar  
    29    15    21 ar  
    30    16    17 ar  
    31    16    32 1   
    32    17    33 1   
    33    18    19 ar  
    34    18    34 1   
    35    19    20 ar  
    36    19    35 1   
    37    20    21 ar  
    38    20    36 1   
    39    21    37 1   
@<TRIPOS>SUBSTRUCTURE
     1 Z31         1 TEMP              0 ****  ****    0 ROOT
