@<TRIPOS>MOLECULE
Z34
   61    64     1     0     0
SMALL
No Charge or Current Charge


@<TRIPOS>ATOM
      1 C1           2.4920    -0.3240     2.0410 ca         1 Z34       0.038000
      2 F1           2.5170    -0.7840     3.3200 f          1 Z34      -0.126000
      3 C2           3.6760     0.0720     1.3890 ca         1 Z34       0.377000
      4 C3           3.5790     0.5210     0.0550 ca         1 Z34      -0.012000
      5 F2           4.6790     0.9480    -0.6240 f          1 Z34      -0.174000
      6 C4           2.3160     0.5490    -0.5660 ca         1 Z34       0.574300
      7 N5           1.1890     0.1560     0.0590 nb         1 Z34      -0.822000
      8 C6           1.2750    -0.2600     1.3400 ca         1 Z34       0.583300
      9 O11         -0.8030     2.0040     2.0340 oh         1 Z34      -0.501100
     10 O1           0.1280    -0.6820     1.9770 os         1 Z34      -0.331400
     11 C11         -1.1340    -0.3460     1.5290 ca         1 Z34       0.092100
     12 C12         -1.9830    -1.3690     1.0720 ca         1 Z34      -0.023000
     13 C13         -3.2950    -1.0830     0.6260 ca         1 Z34      -0.178900
     14 C14         -3.7240     0.2670     0.6240 ca         1 Z34      -0.071000
     15 C15         -2.8800     1.2910     1.0880 ca         1 Z34      -0.219000
     16 C16         -1.5900     0.9930     1.5510 ca         1 Z34       0.160100
     17 C17         -4.1760    -2.1940     0.1410 ce         1 Z34       0.693800
     18 N11         -3.7680    -3.3800    -0.0380 n2         1 Z34      -0.837100
     19 N12         -5.5010    -1.9700     0.0630 nv         1 Z34      -1.122200
     20 O2           2.2360     1.0160    -1.8620 os         1 Z34      -0.359400
     21 C21          1.0390     1.2690    -2.4940 ca         1 Z34       0.136100
     22 C22          0.7180     2.5900    -2.8410 ca         1 Z34      -0.104000
     23 C23         -0.4870     2.8640    -3.5070 ca         1 Z34      -0.120000
     24 C24         -1.3740     1.8190    -3.8170 ca         1 Z34      -0.103000
     25 C25         -1.0750     0.4850    -3.4530 ca         1 Z34      -0.121900
     26 C26          0.1610     0.2190    -2.8220 ca         1 Z34      -0.067000
     27 C27         -1.9890    -0.6450    -3.8310 ce         1 Z34       0.633800
     28 N21         -3.3640    -0.5890    -3.6640 nh         1 Z34      -0.750600
     29 C30         -4.0810     0.4850    -2.9470 c3         1 Z34       0.190100
     30 N22         -1.5170    -1.8120    -4.1290 n2         1 Z34      -0.618900
     31 C28         -3.9100    -1.9510    -3.7500 c5         1 Z34       0.152800
     32 C29         -2.6980    -2.6840    -4.3910 c5         1 Z34       0.086800
     33 N31          4.9320     0.0250     2.0660 nh         1 Z34      -0.762400
     34 C32          5.1940     0.9070     3.2560 c3         1 Z34       0.064800
     35 C33          6.1110     0.3570     4.4080 c          1 Z34       0.714000
     36 O34          7.3120     0.5930     4.3610 o          1 Z34      -0.718000
     37 O35          5.5920    -0.2840     5.3140 o          1 Z34      -0.718000
     38 C36          6.0930    -0.6710     1.4650 c3         1 Z34       0.221100
     39 H11         -1.3010     2.8440     1.9530 ho         1 Z34       0.459000
     40 H12         -1.6130    -2.3910     1.0750 ha         1 Z34       0.162000
     41 H14         -4.7140     0.5360     0.2630 ha         1 Z34       0.094000
     42 H15         -3.2400     2.3170     1.0890 ha         1 Z34       0.108000
     43 H111        -4.5080    -3.8940    -0.5250 hn         1 Z34       0.364400
     44 H121        -6.0860    -2.7810     0.2270 hn         1 Z34       0.471500
     45 H122        -5.8160    -1.1220     0.5160 hn         1 Z34       0.471500
     46 H22          1.4050     3.3960    -2.5990 ha         1 Z34       0.131000
     47 H23         -0.7320     3.8860    -3.7890 ha         1 Z34       0.106000
     48 H24         -2.2880     2.0460    -4.3600 ha         1 Z34       0.115000
     49 H26          0.4330    -0.8000    -2.5610 ha         1 Z34       0.144000
     50 H301        -4.3750     1.2800    -3.6440 h1         1 Z34       0.039700
     51 H302        -4.9910     0.0910    -2.4740 h1         1 Z34       0.039700
     52 H303        -3.4510     0.9190    -2.1600 h1         1 Z34       0.039700
     53 H281        -4.1420    -2.3500    -2.7540 h1         1 Z34       0.043700
     54 H282        -4.8100    -2.0090    -4.3770 h1         1 Z34       0.043700
     55 H291        -2.5600    -3.6850    -3.9610 h1         1 Z34       0.059700
     56 H292        -2.8420    -2.7980    -5.4750 h1         1 Z34       0.059700
     57 H321         5.6470     1.8440     2.9060 h1         1 Z34       0.037700
     58 H322         4.2400     1.1840     3.7230 h1         1 Z34       0.037700
     59 H361         6.5600    -1.3430     2.1970 h1         1 Z34       0.039700
     60 H362         5.7800    -1.2800     0.6070 h1         1 Z34       0.039700
     61 H363         6.8420     0.0540     1.1200 h1         1 Z34       0.039700
@<TRIPOS>BOND
     1     1     2 1   
     2     1     3 ar  
     3     1     8 ar  
     4     3     4 ar  
     5     3    33 1   
     6     4     5 1   
     7     4     6 ar  
     8     6     7 ar  
     9     6    20 1   
    10     7     8 ar  
    11     8    10 1   
    12     9    16 1   
    13     9    39 1   
    14    10    11 1   
    15    11    12 ar  
    16    11    16 ar  
    17    12    13 ar  
    18    12    40 1   
    19    13    14 ar  
    20    13    17 1   
    21    14    15 ar  
    22    14    41 1   
    23    15    16 ar  
    24    15    42 1   
    25    17    18 2   
    26    17    19 1   
    27    18    43 1   
    28    19    44 1   
    29    19    45 1   
    30    20    21 1   
    31    21    22 ar  
    32    21    26 ar  
    33    22    23 ar  
    34    22    46 1   
    35    23    24 ar  
    36    23    47 1   
    37    24    25 ar  
    38    24    48 1   
    39    25    26 ar  
    40    25    27 1   
    41    26    49 1   
    42    27    28 1   
    43    27    30 2   
    44    28    29 1   
    45    28    31 1   
    46    29    50 1   
    47    29    51 1   
    48    29    52 1   
    49    30    32 1   
    50    31    32 1   
    51    31    53 1   
    52    31    54 1   
    53    32    55 1   
    54    32    56 1   
    55    33    34 1   
    56    33    38 1   
    57    34    35 1   
    58    34    57 1   
    59    34    58 1   
    60    35    36 1   
    61    35    37 1   
    62    38    59 1   
    63    38    60 1   
    64    38    61 1   
@<TRIPOS>SUBSTRUCTURE
     1 Z34         1 TEMP              0 ****  ****    0 ROOT
