@<TRIPOS>MOLECULE
Z34
   61    64     1     0     0
SMALL
abcg2


@<TRIPOS>ATOM
      1 C1           2.5300     0.1960     2.1640 ca         1 Z34       0.038000
      2 F1           2.5790     0.1390     3.5040 f          1 Z34      -0.126000
      3 C2           3.7090     0.2450     1.3990 ca         1 Z34       0.377000
      4 C3           3.4850     0.2900     0.0090 ca         1 Z34      -0.012000
      5 F2           4.5180     0.4570    -0.8340 f          1 Z34      -0.174000
      6 C4           2.2090     0.2310    -0.5050 ca         1 Z34       0.574300
      7 N5           1.1380     0.1590     0.2500 nb         1 Z34      -0.822000
      8 C6           1.2920     0.1750     1.5500 ca         1 Z34       0.583300
      9 O11         -0.6070     2.4390     1.1980 oh         1 Z34      -0.501100
     10 O1           0.2040     0.1230     2.3470 os         1 Z34      -0.331400
     11 C11         -1.0310     0.2000     1.7480 ca         1 Z34       0.092100
     12 C12         -1.8580    -0.8980     1.7780 ca         1 Z34      -0.023000
     13 C13         -3.1450    -0.8440     1.2410 ca         1 Z34      -0.178900
     14 C14         -3.5650     0.3530     0.6720 ca         1 Z34      -0.071000
     15 C15         -2.7320     1.4610     0.6350 ca         1 Z34      -0.219000
     16 C16         -1.4560     1.4040     1.1760 ca         1 Z34       0.160100
     17 C17         -4.0020    -2.0590     1.3200 ce         1 Z34       0.693800
     18 N11         -3.6780    -2.9790     2.1510 n2         1 Z34      -0.837100
     19 N12         -5.0600    -2.1070     0.4730 nv         1 Z34      -1.122200
     20 O2           2.0590     0.2680    -1.8490 os         1 Z34      -0.359400
     21 C21          0.8570     0.7410    -2.3250 ca         1 Z34       0.136100
     22 C22          0.4870     2.0600    -2.1110 ca         1 Z34      -0.104000
     23 C23         -0.7130     2.5150    -2.6310 ca         1 Z34      -0.120000
     24 C24         -1.5410     1.6610    -3.3450 ca         1 Z34      -0.103000
     25 C25         -1.1570     0.3400    -3.5580 ca         1 Z34      -0.121900
     26 C26          0.0540    -0.1190    -3.0500 ca         1 Z34      -0.067000
     27 C27         -2.0070    -0.5850    -4.3310 ce         1 Z34       0.633800
     28 N21         -3.3620    -0.6610    -4.1020 nh         1 Z34      -0.750600
     29 C30         -3.9490    -0.4630    -2.7970 c3         1 Z34       0.190100
     30 N22         -1.5420    -1.3120    -5.2720 n2         1 Z34      -0.618900
     31 C28         -3.8340    -1.8100    -4.8660 c5         1 Z34       0.152800
     32 C29         -2.6750    -2.0270    -5.8480 c5         1 Z34       0.086800
     33 N31          4.9530     0.2880     1.9340 nh         1 Z34      -0.762400
     34 C32          5.2230     0.9010     3.2160 c3         1 Z34       0.064800
     35 C33          5.2990    -0.0570     4.4250 c          1 Z34       0.714000
     36 O34          5.2160    -1.2770     4.2080 o          1 Z34      -0.718000
     37 O35          5.4680     0.5130     5.5210 o          1 Z34      -0.718000
     38 C36          6.0830    -0.3570     1.2960 c3         1 Z34       0.221100
     39 H11         -0.9960     3.2040     0.7580 ho         1 Z34       0.459000
     40 H12         -1.5040    -1.8170     2.2250 ha         1 Z34       0.162000
     41 H14         -4.5620     0.4700     0.2670 ha         1 Z34       0.094000
     42 H15         -3.0900     2.3820     0.1910 ha         1 Z34       0.108000
     43 H111        -4.3180    -3.7660     2.0960 hn         1 Z34       0.364400
     44 H121        -5.7470    -2.8340     0.5700 hn         1 Z34       0.471500
     45 H122        -5.3110    -1.3450    -0.1280 hn         1 Z34       0.471500
     46 H22          1.1260     2.7250    -1.5440 ha         1 Z34       0.131000
     47 H23         -1.0060     3.5460    -2.4790 ha         1 Z34       0.106000
     48 H24         -2.4760     2.0280    -3.7480 ha         1 Z34       0.115000
     49 H26          0.3580    -1.1460    -3.2050 ha         1 Z34       0.144000
     50 H301        -3.5060     0.3940    -2.2960 h1         1 Z34       0.039700
     51 H302        -5.0160    -0.2710    -2.9020 h1         1 Z34       0.039700
     52 H303        -3.8200    -1.3390    -2.1500 h1         1 Z34       0.039700
     53 H281        -3.9700    -2.6720    -4.2010 h1         1 Z34       0.043700
     54 H282        -4.7890    -1.6070    -5.3520 h1         1 Z34       0.043700
     55 H291        -2.4440    -3.0820    -6.0000 h1         1 Z34       0.059700
     56 H292        -2.9030    -1.6070    -6.8330 h1         1 Z34       0.059700
     57 H321         6.1850     1.4180     3.1300 h1         1 Z34       0.037700
     58 H322         4.4990     1.6930     3.4110 h1         1 Z34       0.037700
     59 H361         6.6970    -0.8130     2.0710 h1         1 Z34       0.039700
     60 H362         5.7640    -1.1610     0.6370 h1         1 Z34       0.039700
     61 H363         6.7060     0.3390     0.7310 h1         1 Z34       0.039700
@<TRIPOS>BOND
     1     1     2 1   
     2     1     3 ar  
     3     1     8 ar  
     4     3     4 ar  
     5     3    33 1   
     6     4     5 1   
     7     4     6 ar  
     8     6     7 ar  
     9     6    20 1   
    10     7     8 ar  
    11     8    10 1   
    12     9    16 1   
    13     9    39 1   
    14    10    11 1   
    15    11    12 ar  
    16    11    16 ar  
    17    12    13 ar  
    18    12    40 1   
    19    13    14 ar  
    20    13    17 1   
    21    14    15 ar  
    22    14    41 1   
    23    15    16 ar  
    24    15    42 1   
    25    17    18 2   
    26    17    19 1   
    27    18    43 1   
    28    19    44 1   
    29    19    45 1   
    30    20    21 1   
    31    21    22 ar  
    32    21    26 ar  
    33    22    23 ar  
    34    22    46 1   
    35    23    24 ar  
    36    23    47 1   
    37    24    25 ar  
    38    24    48 1   
    39    25    26 ar  
    40    25    27 1   
    41    26    49 1   
    42    27    28 1   
    43    27    30 2   
    44    28    29 1   
    45    28    31 1   
    46    29    50 1   
    47    29    51 1   
    48    29    52 1   
    49    30    32 1   
    50    31    32 1   
    51    31    53 1   
    52    31    54 1   
    53    32    55 1   
    54    32    56 1   
    55    33    34 1   
    56    33    38 1   
    57    34    35 1   
    58    34    57 1   
    59    34    58 1   
    60    35    36 1   
    61    35    37 1   
    62    38    59 1   
    63    38    60 1   
    64    38    61 1   
@<TRIPOS>SUBSTRUCTURE
     1 Z34         1 TEMP              0 ****  ****    0 ROOT
