@<TRIPOS>MOLECULE
Z3A
   45    47     1     0     0
SMALL
No Charge or Current Charge


@<TRIPOS>ATOM
      1 O2          -4.1620     0.4010    -0.1790 o          1 Z3A      -0.659100
      2 C8          -3.5580     1.3270     0.3320 c          1 Z3A       0.649700
      3 N3          -4.2650     2.3240     0.8910 nt         1 Z3A      -0.594000
      4 C2          -2.0920     1.4190     0.3900 cc         1 Z3A      -0.414600
      5 C1          -1.4480     2.5180     1.0700 cc         1 Z3A       0.390900
      6 N1          -0.1430     2.7470     1.2420 nd         1 Z3A      -0.542800
      7 C3          -1.2880     0.4630    -0.1730 cd         1 Z3A       0.501000
      8 N2          -1.7610    -0.6170    -0.8550 nu         1 Z3A      -0.914200
      9 C4          -1.5030    -2.0340    -0.4960 c3         1 Z3A       0.212500
     10 C6          -2.2900    -2.4900     0.7920 c3         1 Z3A       0.170300
     11 C7          -1.7280    -1.8980     2.1030 c3         1 Z3A      -0.140100
     12 O1          -3.6950    -2.1800     0.7280 oh         1 Z3A      -0.638000
     13 C5          -1.7890    -2.9450    -1.7330 c3         1 Z3A       0.150600
     14 O           -3.0910    -2.7010    -2.3050 oh         1 Z3A      -0.632000
     15 C            0.1030     0.6910    -0.0160 cd         1 Z3A      -0.230000
     16 C11          1.1840    -0.0030    -0.5000 cc         1 Z3A      -0.196000
     17 C10          2.3630     0.6760    -0.0670 cc         1 Z3A      -0.100200
     18 C9           2.0020     1.7920     0.6700 cd         1 Z3A      -0.156100
     19 N            0.6170     1.7580     0.6700 na         1 Z3A       0.287900
     20 C12          3.7740     0.3380    -0.3270 ca         1 Z3A      -0.002800
     21 C17          4.0940    -0.7970    -1.1040 ca         1 Z3A      -0.108500
     22 C16          5.4320    -1.1410    -1.3650 ca         1 Z3A      -0.108000
     23 C15          6.4730    -0.3540    -0.8520 ca         1 Z3A      -0.115000
     24 C14          6.1740     0.7770    -0.0770 ca         1 Z3A      -0.108000
     25 C13          4.8360     1.1210     0.1840 ca         1 Z3A      -0.108500
     26 H1          -5.2720     2.2780     0.8620 hn         1 Z3A       0.310500
     27 H2          -3.8020     3.1080     1.3210 hn         1 Z3A       0.310500
     28 H3          -2.0320     3.3000     1.5350 h4         1 Z3A       0.021100
     29 H4          -2.7330    -0.4510    -1.1370 hn         1 Z3A       0.560000
     30 H5          -0.4390    -2.1670    -0.2640 h1         1 Z3A       0.066700
     31 H6          -2.1660    -3.5800     0.8690 h1         1 Z3A       0.060700
     32 H7          -2.2100    -2.3650     2.9690 hc         1 Z3A       0.050033
     33 H8          -0.6490    -2.0820     2.1780 hc         1 Z3A       0.050033
     34 H9          -1.8980    -0.8180     2.1650 hc         1 Z3A       0.050033
     35 H10         -3.7810    -1.2440     0.4160 ho         1 Z3A       0.451000
     36 H11         -1.0160    -2.7510    -2.4880 h1         1 Z3A       0.024700
     37 H12         -1.6930    -3.9980    -1.4350 h1         1 Z3A       0.024700
     38 H13         -3.1750    -3.2900    -3.0870 ho         1 Z3A       0.442000
     39 H14          1.1590    -0.8930    -1.1220 ha         1 Z3A       0.198000
     40 H15          2.5650     2.5730     1.1620 h4         1 Z3A       0.234000
     41 H16          3.3080    -1.4250    -1.5140 ha         1 Z3A       0.109000
     42 H17          5.6600    -2.0190    -1.9660 ha         1 Z3A       0.110500
     43 H18          7.5090    -0.6200    -1.0530 ha         1 Z3A       0.112000
     44 H19          6.9800     1.3890     0.3230 ha         1 Z3A       0.110500
     45 H20          4.6430     2.0020     0.7880 ha         1 Z3A       0.109000
@<TRIPOS>BOND
     1     1     2 2   
     2     2     3 1   
     3     2     4 1   
     4     3    26 1   
     5     3    27 1   
     6     4     5 1   
     7     4     7 2   
     8     5     6 2   
     9     5    28 1   
    10     6    19 1   
    11     7     8 1   
    12     7    15 1   
    13     8     9 1   
    14     8    29 1   
    15     9    10 1   
    16     9    13 1   
    17     9    30 1   
    18    10    11 1   
    19    10    12 1   
    20    10    31 1   
    21    11    32 1   
    22    11    33 1   
    23    11    34 1   
    24    12    35 1   
    25    13    14 1   
    26    13    36 1   
    27    13    37 1   
    28    14    38 1   
    29    15    16 2   
    30    15    19 1   
    31    16    17 1   
    32    16    39 1   
    33    17    18 2   
    34    17    20 1   
    35    18    19 1   
    36    18    40 1   
    37    20    21 ar  
    38    20    25 ar  
    39    21    22 ar  
    40    21    41 1   
    41    22    23 ar  
    42    22    42 1   
    43    23    24 ar  
    44    23    43 1   
    45    24    25 ar  
    46    24    44 1   
    47    25    45 1   
@<TRIPOS>SUBSTRUCTURE
     1 Z3A         1 TEMP              0 ****  ****    0 ROOT
