@<TRIPOS>MOLECULE
Z3A
   45    47     1     0     0
SMALL
abcg2


@<TRIPOS>ATOM
      1 O2          -4.2320     0.6950     0.4060 o          1 Z3A      -0.659100
      2 C8          -3.5750     1.7440     0.3940 c          1 Z3A       0.649700
      3 N3          -4.2060     2.9340     0.3860 nt         1 Z3A      -0.594000
      4 C2          -2.1050     1.7480     0.3960 cc         1 Z3A      -0.414600
      5 C1          -1.3900     2.9420     0.6520 cc         1 Z3A       0.390900
      6 N1          -0.1060     3.0920     0.6590 nd         1 Z3A      -0.542800
      7 C3          -1.3630     0.5600     0.1840 cd         1 Z3A       0.501000
      8 N2          -1.9720    -0.6150     0.0700 nu         1 Z3A      -0.914200
      9 C4          -1.4250    -1.9350    -0.1380 c3         1 Z3A       0.212500
     10 C6          -2.2490    -2.9490     0.6780 c3         1 Z3A       0.170300
     11 C7          -1.9460    -2.8320     2.1630 c3         1 Z3A      -0.140100
     12 O1          -3.6310    -2.8110     0.4160 oh         1 Z3A      -0.638000
     13 C5          -1.3060    -2.2780    -1.6180 c3         1 Z3A       0.150600
     14 O           -2.5660    -2.2100    -2.2330 oh         1 Z3A      -0.632000
     15 C            0.0610     0.7190     0.0980 cd         1 Z3A      -0.230000
     16 C11          1.1450    -0.0950    -0.2110 cc         1 Z3A      -0.196000
     17 C10          2.3130     0.6830    -0.1300 cc         1 Z3A      -0.100200
     18 C9           1.9230     1.9650     0.2230 cd         1 Z3A      -0.156100
     19 N            0.5830     1.9790     0.3460 na         1 Z3A       0.287900
     20 C12          3.6860     0.2350    -0.3750 ca         1 Z3A      -0.002800
     21 C17          3.9410    -0.9560    -1.0590 ca         1 Z3A      -0.108500
     22 C16          5.2400    -1.3820    -1.2870 ca         1 Z3A      -0.108000
     23 C15          6.3160    -0.6240    -0.8430 ca         1 Z3A      -0.115000
     24 C14          6.0760     0.5640    -0.1650 ca         1 Z3A      -0.108000
     25 C13          4.7770     0.9860     0.0700 ca         1 Z3A      -0.108500
     26 H1          -5.2110     2.9370     0.3260 hn         1 Z3A       0.310500
     27 H2          -3.7480     3.7970     0.1530 hn         1 Z3A       0.310500
     28 H3          -1.9220     3.8480     0.9130 h4         1 Z3A       0.021100
     29 H4          -2.9880    -0.5450     0.1190 hn         1 Z3A       0.560000
     30 H5          -0.4170    -1.9880     0.2740 h1         1 Z3A       0.066700
     31 H6          -1.9370    -3.9440     0.3400 h1         1 Z3A       0.060700
     32 H7          -2.5190    -3.5640     2.7330 hc         1 Z3A       0.050033
     33 H8          -0.8900    -3.0150     2.3590 hc         1 Z3A       0.050033
     34 H9          -2.1890    -1.8370     2.5430 hc         1 Z3A       0.050033
     35 H10         -4.0710    -2.5100     1.2170 ho         1 Z3A       0.451000
     36 H11         -0.5950    -1.5800    -2.0800 h1         1 Z3A       0.024700
     37 H12         -0.8590    -3.2790    -1.6950 h1         1 Z3A       0.024700
     38 H13         -2.4370    -2.3170    -3.1800 ho         1 Z3A       0.442000
     39 H14          1.1190    -1.1380    -0.4700 ha         1 Z3A       0.198000
     40 H15          2.4920     2.8670     0.3740 h4         1 Z3A       0.234000
     41 H16          3.1180    -1.5560    -1.4290 ha         1 Z3A       0.109000
     42 H17          5.4130    -2.3080    -1.8200 ha         1 Z3A       0.110500
     43 H18          7.3300    -0.9570    -1.0220 ha         1 Z3A       0.112000
     44 H19          6.9050     1.1640     0.1890 ha         1 Z3A       0.110500
     45 H20          4.6120     1.9060     0.6190 ha         1 Z3A       0.109000
@<TRIPOS>BOND
     1     1     2 2   
     2     2     3 1   
     3     2     4 1   
     4     3    26 1   
     5     3    27 1   
     6     4     5 1   
     7     4     7 2   
     8     5     6 2   
     9     5    28 1   
    10     6    19 1   
    11     7     8 1   
    12     7    15 1   
    13     8     9 1   
    14     8    29 1   
    15     9    10 1   
    16     9    13 1   
    17     9    30 1   
    18    10    11 1   
    19    10    12 1   
    20    10    31 1   
    21    11    32 1   
    22    11    33 1   
    23    11    34 1   
    24    12    35 1   
    25    13    14 1   
    26    13    36 1   
    27    13    37 1   
    28    14    38 1   
    29    15    16 2   
    30    15    19 1   
    31    16    17 1   
    32    16    39 1   
    33    17    18 2   
    34    17    20 1   
    35    18    19 1   
    36    18    40 1   
    37    20    21 ar  
    38    20    25 ar  
    39    21    22 ar  
    40    21    41 1   
    41    22    23 ar  
    42    22    42 1   
    43    23    24 ar  
    44    23    43 1   
    45    24    25 ar  
    46    24    44 1   
    47    25    45 1   
@<TRIPOS>SUBSTRUCTURE
     1 Z3A         1 TEMP              0 ****  ****    0 ROOT
