@<TRIPOS>MOLECULE
Z3D
   48    49     1     0     0
SMALL
No Charge or Current Charge


@<TRIPOS>ATOM
      1 C02         25.2890   -26.0300   345.9290 c6         1 Z3D       0.122300
      2 C03         25.5650   -24.5820   346.4730 c6         1 Z3D       0.156300
      3 C05         24.7370   -24.6150   348.7890 c6         1 Z3D       0.389300
      4 C06         23.4830   -25.3880   349.3270 c6         1 Z3D       0.150300
      5 C08         22.2840   -24.4080   349.4520 c6         1 Z3D       0.098300
      6 C10         22.6730   -23.1870   350.3350 c6         1 Z3D       0.125300
      7 C12         23.9450   -22.5040   349.7270 c6         1 Z3D       0.174300
      8 C13         24.4620   -21.2980   350.5800 c3         1 Z3D       0.170600
      9 C16         25.6210   -23.5590   345.2960 c6         1 Z3D      -0.067700
     10 C17         25.8790   -22.1020   345.7890 c3         1 Z3D       0.165600
     11 C19         26.6730   -23.9900   344.2250 c6         1 Z3D      -0.072400
     12 C20         26.4550   -25.4340   343.7010 c6         1 Z3D       0.166500
     13 C22         26.3780   -26.4460   344.8950 c6         1 Z3D       0.136300
     14 N21         25.2640   -25.5120   342.8130 n8         1 Z3D      -0.997200
     15 O01         25.2130   -27.0240   346.9750 oh         1 Z3D      -0.752000
     16 O04         24.5520   -24.1700   347.4240 os         1 Z3D      -0.503000
     17 O07         23.0960   -26.5060   348.4920 oh         1 Z3D      -0.736000
     18 O09         21.1340   -25.0830   349.9980 oh         1 Z3D      -0.676000
     19 O11         21.5500   -22.2800   350.4270 oh         1 Z3D      -0.724000
     20 O14         24.8550   -21.6600   351.9210 oh         1 Z3D      -0.719000
     21 O15         25.0270   -23.4700   349.6180 os         1 Z3D      -0.454000
     22 O18         27.1630   -21.9490   346.4110 oh         1 Z3D      -0.671000
     23 O23         26.0930   -27.7790   344.4360 oh         1 Z3D      -0.671000
     24 H1          24.3210   -25.9990   345.4060 h1         1 Z3D       0.042700
     25 H2          26.5460   -24.5710   346.9720 h1         1 Z3D       0.071700
     26 H3          25.5970   -25.3020   348.8420 h2         1 Z3D       0.094700
     27 H4          23.7320   -25.7510   350.3360 h1         1 Z3D       0.070700
     28 H5          22.0470   -24.0300   348.4450 h1         1 Z3D       0.068700
     29 H6          22.9370   -23.5620   351.3370 h1         1 Z3D       0.075700
     30 H7          23.7060   -22.1240   348.7220 h1         1 Z3D       0.062700
     31 H8          25.3160   -20.8590   350.0460 h1         1 Z3D       0.036700
     32 H9          23.6780   -20.5290   350.6080 h1         1 Z3D       0.036700
     33 H10         24.6310   -23.5330   344.8210 hc         1 Z3D       0.060700
     34 H11         25.8020   -21.4290   344.9240 h1         1 Z3D       0.028200
     35 H12         25.0830   -21.8160   346.4900 h1         1 Z3D       0.028200
     36 H13         27.6820   -23.9270   344.6540 hc         1 Z3D       0.063700
     37 H14         26.6620   -23.2850   343.3820 hc         1 Z3D       0.063700
     38 H15         27.3280   -25.7100   343.0880 h1         1 Z3D       0.078700
     39 H16         27.3510   -26.4340   345.4090 h1         1 Z3D       0.051700
     40 H17         25.0800   -26.5120   342.6590 hn         1 Z3D       0.400000
     41 H18         24.4400   -25.2030   343.3370 hn         1 Z3D       0.400000
     42 H20         24.3800   -26.8190   347.5020 ho         1 Z3D       0.545000
     43 H21         22.1470   -26.6610   348.7310 ho         1 Z3D       0.532000
     44 H22         20.5340   -24.3590   350.2950 ho         1 Z3D       0.452000
     45 H23         21.6920   -21.7200   351.2270 ho         1 Z3D       0.510000
     46 H24         25.3030   -20.8740   352.3120 ho         1 Z3D       0.503000
     47 H25         27.2350   -21.0100   346.6930 ho         1 Z3D       0.444000
     48 H26         25.7280   -28.2230   345.2380 ho         1 Z3D       0.465000
@<TRIPOS>BOND
     1     1     2 1   
     2     1    13 1   
     3     1    15 1   
     4     1    24 1   
     5     2     9 1   
     6     2    16 1   
     7     2    25 1   
     8     3     4 1   
     9     3    16 1   
    10     3    21 1   
    11     3    26 1   
    12     4     5 1   
    13     4    17 1   
    14     4    27 1   
    15     5     6 1   
    16     5    18 1   
    17     5    28 1   
    18     6     7 1   
    19     6    19 1   
    20     6    29 1   
    21     7     8 1   
    22     7    21 1   
    23     7    30 1   
    24     8    20 1   
    25     8    31 1   
    26     8    32 1   
    27     9    10 1   
    28     9    11 1   
    29     9    33 1   
    30    10    22 1   
    31    10    34 1   
    32    10    35 1   
    33    11    12 1   
    34    11    36 1   
    35    11    37 1   
    36    12    13 1   
    37    12    14 1   
    38    12    38 1   
    39    13    23 1   
    40    13    39 1   
    41    14    40 1   
    42    14    41 1   
    43    15    42 1   
    44    17    43 1   
    45    18    44 1   
    46    19    45 1   
    47    20    46 1   
    48    22    47 1   
    49    23    48 1   
@<TRIPOS>SUBSTRUCTURE
     1 Z3D         1 TEMP              0 ****  ****    0 ROOT
