@<TRIPOS>MOLECULE
Z3D
   48    49     1     0     0
SMALL
abcg2


@<TRIPOS>ATOM
      1 C02         25.1570   -26.0400   345.8520 c6         1 Z3D       0.122300
      2 C03         25.5350   -24.7300   346.5360 c6         1 Z3D       0.156300
      3 C05         24.8390   -24.5800   348.8570 c6         1 Z3D       0.389300
      4 C06         23.6950   -25.2920   349.5800 c6         1 Z3D       0.150300
      5 C08         22.4520   -24.4220   349.5900 c6         1 Z3D       0.098300
      6 C10         22.7760   -23.0660   350.2090 c6         1 Z3D       0.125300
      7 C12         23.9630   -22.4350   349.4790 c6         1 Z3D       0.174300
      8 C13         24.4290   -21.1280   350.0770 c3         1 Z3D       0.170600
      9 C16         25.6570   -23.5850   345.5290 c6         1 Z3D      -0.067700
     10 C17         26.0610   -22.2760   346.1920 c3         1 Z3D       0.165600
     11 C19         26.6270   -23.9750   344.4020 c6         1 Z3D      -0.072400
     12 C20         26.2560   -25.2840   343.7050 c6         1 Z3D       0.166500
     13 C22         26.1510   -26.3930   344.7580 c6         1 Z3D       0.136300
     14 N21         25.0610   -25.1200   342.8680 n8         1 Z3D      -0.997200
     15 O01         25.1420   -27.1300   346.7700 oh         1 Z3D      -0.752000
     16 O04         24.5160   -24.4330   347.5020 os         1 Z3D      -0.503000
     17 O07         23.4570   -26.5460   348.9500 oh         1 Z3D      -0.736000
     18 O09         21.4550   -25.1230   350.3390 oh         1 Z3D      -0.676000
     19 O11         21.6720   -22.1720   350.0950 oh         1 Z3D      -0.724000
     20 O14         24.7520   -21.3100   351.4560 oh         1 Z3D      -0.719000
     21 O15         25.0790   -23.3370   349.4820 os         1 Z3D      -0.454000
     22 O18         27.3520   -22.4190   346.7950 oh         1 Z3D      -0.671000
     23 O23         25.7850   -27.6130   344.1140 oh         1 Z3D      -0.671000
     24 H1          24.1600   -25.9210   345.4110 h1         1 Z3D       0.042700
     25 H2          26.4880   -24.8610   347.0540 h1         1 Z3D       0.071700
     26 H3          25.7660   -25.1450   348.9690 h2         1 Z3D       0.094700
     27 H4          24.0160   -25.4570   350.6140 h1         1 Z3D       0.070700
     28 H5          22.1050   -24.2710   348.5630 h1         1 Z3D       0.068700
     29 H6          23.0380   -23.2120   351.2600 h1         1 Z3D       0.075700
     30 H7          23.6630   -22.2300   348.4450 h1         1 Z3D       0.062700
     31 H8          25.3050   -20.7870   349.5150 h1         1 Z3D       0.036700
     32 H9          23.6310   -20.3900   349.9590 h1         1 Z3D       0.036700
     33 H10         24.6620   -23.4100   345.1060 hc         1 Z3D       0.060700
     34 H11         26.0830   -21.4850   345.4340 h1         1 Z3D       0.028200
     35 H12         25.3220   -22.0050   346.9480 h1         1 Z3D       0.028200
     36 H13         27.6320   -24.0720   344.8190 hc         1 Z3D       0.063700
     37 H14         26.6610   -23.1720   343.6620 hc         1 Z3D       0.063700
     38 H15         27.0730   -25.5600   343.0330 h1         1 Z3D       0.078700
     39 H16         27.1380   -26.5120   345.2260 h1         1 Z3D       0.051700
     40 H17         24.7740   -26.0290   342.5190 hn         1 Z3D       0.400000
     41 H18         24.2800   -24.7760   343.4170 hn         1 Z3D       0.400000
     42 H20         24.4440   -26.9730   347.4330 ho         1 Z3D       0.545000
     43 H21         22.6090   -26.8820   349.2700 ho         1 Z3D       0.532000
     44 H22         20.5840   -24.8830   350.0010 ho         1 Z3D       0.452000
     45 H23         20.9970   -22.4440   350.7290 ho         1 Z3D       0.510000
     46 H24         25.0140   -20.4550   351.8170 ho         1 Z3D       0.503000
     47 H25         27.5100   -21.6480   347.3520 ho         1 Z3D       0.444000
     48 H26         25.5230   -28.2300   344.8120 ho         1 Z3D       0.465000
@<TRIPOS>BOND
     1     1     2 1   
     2     1    13 1   
     3     1    15 1   
     4     1    24 1   
     5     2     9 1   
     6     2    16 1   
     7     2    25 1   
     8     3     4 1   
     9     3    16 1   
    10     3    21 1   
    11     3    26 1   
    12     4     5 1   
    13     4    17 1   
    14     4    27 1   
    15     5     6 1   
    16     5    18 1   
    17     5    28 1   
    18     6     7 1   
    19     6    19 1   
    20     6    29 1   
    21     7     8 1   
    22     7    21 1   
    23     7    30 1   
    24     8    20 1   
    25     8    31 1   
    26     8    32 1   
    27     9    10 1   
    28     9    11 1   
    29     9    33 1   
    30    10    22 1   
    31    10    34 1   
    32    10    35 1   
    33    11    12 1   
    34    11    36 1   
    35    11    37 1   
    36    12    13 1   
    37    12    14 1   
    38    12    38 1   
    39    13    23 1   
    40    13    39 1   
    41    14    40 1   
    42    14    41 1   
    43    15    42 1   
    44    17    43 1   
    45    18    44 1   
    46    19    45 1   
    47    20    46 1   
    48    22    47 1   
    49    23    48 1   
@<TRIPOS>SUBSTRUCTURE
     1 Z3D         1 TEMP              0 ****  ****    0 ROOT
