@<TRIPOS>MOLECULE
Z3E
   29    29     1     0     0
SMALL
No Charge or Current Charge


@<TRIPOS>ATOM
      1 C          -17.4750     1.9130   -22.8490 c          1 Z3E       0.936600
      2 N          -18.6840     4.1720   -22.2000 n8         1 Z3E      -0.872800
      3 O          -16.5100     1.7520   -22.1060 o          1 Z3E      -0.833300
      4 C1         -16.9030     7.8450   -24.6840 ca         1 Z3E      -0.066300
      5 C2         -17.1200     8.7290   -23.6080 ca         1 Z3E      -0.109500
      6 C3         -17.7650     9.9610   -23.8200 ca         1 Z3E      -0.140500
      7 C4         -18.1980    10.3150   -25.1090 ca         1 Z3E      -0.139000
      8 C5         -17.9870     9.4370   -26.1850 ca         1 Z3E      -0.140500
      9 C6         -17.3410     8.2060   -25.9730 ca         1 Z3E      -0.109500
     10 C7         -16.1990     6.5140   -24.4560 c3         1 Z3E       0.188700
     11 CA         -17.9150     3.3860   -23.2480 c3         1 Z3E       0.025500
     12 CB         -16.7000     4.2010   -23.7920 c3         1 Z3E       0.158100
     13 OG1        -17.1940     5.5100   -24.1770 os         1 Z3E      -0.431600
     14 CG2        -16.0230     3.5440   -25.0250 c3         1 Z3E      -0.106100
     15 OXT        -18.1500     0.9710   -23.2560 o          1 Z3E      -0.833300
     16 H2         -18.8620     5.1090   -22.5760 hn         1 Z3E       0.319800
     17 H          -19.6120     3.7550   -22.0760 hn         1 Z3E       0.319800
     18 H8         -16.7880     8.4600   -22.6070 ha         1 Z3E       0.133500
     19 H3         -17.9300    10.6390   -22.9850 ha         1 Z3E       0.119500
     20 H4         -18.6980    11.2680   -25.2730 ha         1 Z3E       0.116000
     21 H5         -18.3230     9.7090   -27.1840 ha         1 Z3E       0.119500
     22 H6         -17.1820     7.5290   -26.8110 ha         1 Z3E       0.133500
     23 H7         -15.6180     6.2590   -25.3510 h1         1 Z3E       0.021200
     24 H7A        -15.5000     6.6090   -23.6140 h1         1 Z3E       0.021200
     25 HA         -18.6100     3.2770   -24.0920 h1         1 Z3E       0.010700
     26 HB         -15.9590     4.2950   -22.9860 h1         1 Z3E       0.064700
     27 HG2        -15.1150     4.0840   -25.3160 hc         1 Z3E       0.031033
     28 HG2A       -15.7230     2.5130   -24.8090 hc         1 Z3E       0.031033
     29 HG2B       -16.7080     3.5270   -25.8820 hc         1 Z3E       0.031033
@<TRIPOS>BOND
     1     1     3 1   
     2     1    11 1   
     3     1    15 1   
     4     2    11 1   
     5     2    16 1   
     6     2    17 1   
     7     4     5 ar  
     8     4     9 ar  
     9     4    10 1   
    10     5     6 ar  
    11     5    18 1   
    12     6     7 ar  
    13     6    19 1   
    14     7     8 ar  
    15     7    20 1   
    16     8     9 ar  
    17     8    21 1   
    18     9    22 1   
    19    10    13 1   
    20    10    23 1   
    21    10    24 1   
    22    11    12 1   
    23    11    25 1   
    24    12    13 1   
    25    12    14 1   
    26    12    26 1   
    27    14    27 1   
    28    14    28 1   
    29    14    29 1   
@<TRIPOS>SUBSTRUCTURE
     1 Z3E         1 TEMP              0 ****  ****    0 ROOT
