@<TRIPOS>MOLECULE
Z3E
   29    29     1     0     0
SMALL
bcc


@<TRIPOS>ATOM
      1 C          -17.4720     2.0010   -22.9010 c          1 Z3E       0.936600
      2 N          -18.3990     4.1100   -22.1510 n8         1 Z3E      -0.872800
      3 O          -16.3040     1.8470   -22.4920 o          1 Z3E      -0.833300
      4 C1         -16.8930     7.8450   -24.5470 ca         1 Z3E      -0.066300
      5 C2         -17.2570     8.7590   -23.5630 ca         1 Z3E      -0.109500
      6 C3         -17.8810     9.9530   -23.9000 ca         1 Z3E      -0.140500
      7 C4         -18.1540    10.2420   -25.2300 ca         1 Z3E      -0.139000
      8 C5         -17.7990     9.3340   -26.2200 ca         1 Z3E      -0.140500
      9 C6         -17.1740     8.1430   -25.8780 ca         1 Z3E      -0.109500
     10 C7         -16.2490     6.5370   -24.1880 c3         1 Z3E       0.188700
     11 CA         -17.8950     3.4270   -23.3440 c3         1 Z3E       0.025500
     12 CB         -16.7470     4.2270   -23.9420 c3         1 Z3E       0.158100
     13 OG1        -17.2400     5.5380   -24.2060 os         1 Z3E      -0.431600
     14 CG2        -16.2110     3.5980   -25.2200 c3         1 Z3E      -0.106100
     15 OXT        -18.3690     1.1360   -22.9450 o          1 Z3E      -0.833300
     16 H2         -18.7760     5.0110   -22.4190 hn         1 Z3E       0.319800
     17 H          -19.1830     3.5870   -21.7810 hn         1 Z3E       0.319800
     18 H8         -17.0450     8.5380   -22.5230 ha         1 Z3E       0.133500
     19 H3         -18.1540    10.6570   -23.1240 ha         1 Z3E       0.119500
     20 H4         -18.6390    11.1730   -25.4950 ha         1 Z3E       0.116000
     21 H5         -18.0060     9.5560   -27.2590 ha         1 Z3E       0.119500
     22 H6         -16.8930     7.4410   -26.6550 ha         1 Z3E       0.133500
     23 H7         -15.4470     6.3160   -24.9050 h1         1 Z3E       0.021200
     24 H7A        -15.7800     6.6040   -23.1970 h1         1 Z3E       0.021200
     25 HA         -18.6700     3.3220   -24.1220 h1         1 Z3E       0.010700
     26 HB         -15.9440     4.2830   -23.1960 h1         1 Z3E       0.064700
     27 HG2        -15.4390     4.2180   -25.6790 hc         1 Z3E       0.031033
     28 HG2A       -15.7640     2.6270   -25.0130 hc         1 Z3E       0.031033
     29 HG2B       -17.0080     3.4580   -25.9530 hc         1 Z3E       0.031033
@<TRIPOS>BOND
     1     1     3 1   
     2     1    11 1   
     3     1    15 1   
     4     2    11 1   
     5     2    16 1   
     6     2    17 1   
     7     4     5 ar  
     8     4     9 ar  
     9     4    10 1   
    10     5     6 ar  
    11     5    18 1   
    12     6     7 ar  
    13     6    19 1   
    14     7     8 ar  
    15     7    20 1   
    16     8     9 ar  
    17     8    21 1   
    18     9    22 1   
    19    10    13 1   
    20    10    23 1   
    21    10    24 1   
    22    11    12 1   
    23    11    25 1   
    24    12    13 1   
    25    12    14 1   
    26    12    26 1   
    27    14    27 1   
    28    14    28 1   
    29    14    29 1   
@<TRIPOS>SUBSTRUCTURE
     1 Z3E         1 TEMP              0 ****  ****    0 ROOT
