@<TRIPOS>MOLECULE
Z3F
   50    52     1     0     0
SMALL
abcg2


@<TRIPOS>ATOM
      1 C10         -3.0480    17.7030   -14.7290 c          1 Z3F       0.611100
      2 C01         -1.9650    12.3060   -10.2070 c3         1 Z3F       0.152100
      3 C03         -1.2590    14.3960    -9.2770 c6         1 Z3F       0.152800
      4 C04         -0.2740    15.5460    -9.3940 c6         1 Z3F       0.096500
      5 C06         -0.0970    17.5050   -10.8110 c          1 Z3F       0.650100
      6 C08         -1.7780    17.8610   -12.5770 c6         1 Z3F       0.107000
      7 C09         -1.7020    17.9840   -14.0950 c6         1 Z3F      -0.158700
      8 C13         -3.9850    16.9510   -16.9070 ca         1 Z3F       0.012000
      9 C14         -5.3280    16.8510   -16.5450 ca         1 Z3F      -0.176000
     10 C15         -6.2530    16.4930   -17.5060 ca         1 Z3F       0.210000
     11 C17         -5.9010    16.2340   -18.8170 ca         1 Z3F       0.036000
     12 C19         -4.5650    16.3390   -19.1740 ca         1 Z3F      -0.047000
     13 C20         -3.6200    16.6940   -18.2330 ca         1 Z3F      -0.182000
     14 C21         -1.2060    19.3870   -14.4690 c6         1 Z3F      -0.070400
     15 C22          0.1130    19.6750   -13.7630 c6         1 Z3F      -0.086400
     16 C23          0.0230    19.4460   -12.2610 c6         1 Z3F       0.091000
     17 C25         -0.2550    15.2290   -11.7820 c6         1 Z3F       0.096500
     18 C26         -1.2410    14.0860   -11.6380 c6         1 Z3F       0.152800
     19 F16         -7.5350    16.3900   -17.1500 f          1 Z3F      -0.158000
     20 N02         -1.0820    13.4400   -10.3520 n3         1 Z3F      -0.716600
     21 N05         -0.4250    16.1770   -10.6910 n          1 Z3F      -0.415800
     22 N07         -0.4670    18.1040   -11.9920 n          1 Z3F      -0.414800
     23 N12         -2.9630    17.2730   -16.0180 ns         1 Z3F      -0.147000
     24 O11         -4.0990    17.8650   -14.1390 o          1 Z3F      -0.567100
     25 O24          0.4820    18.1140    -9.9220 o          1 Z3F      -0.619100
     26 CL1         -7.1070    15.7870   -19.9620 cl         1 Z3F      -0.167000
     27 H1          -1.7770    11.8060    -9.2560 h1         1 Z3F       0.032700
     28 H2          -3.0310    12.5800   -10.2370 h1         1 Z3F       0.032700
     29 H3          -1.7840    11.5860   -11.0060 h1         1 Z3F       0.032700
     30 H5          -2.2840    14.8050    -9.2620 h1         1 Z3F       0.039950
     31 H6           0.7500    15.1740    -9.2540 h1         1 Z3F       0.054200
     32 H7          -0.4730    16.2680    -8.6050 h1         1 Z3F       0.054200
     33 H8          -2.4870    18.6020   -12.1870 h1         1 Z3F       0.063700
     34 H9          -2.1530    16.8840   -12.2820 h1         1 Z3F       0.063700
     35 H10         -0.9740    17.2530   -14.4660 hc         1 Z3F       0.066700
     36 H11         -5.6670    17.0360   -15.5380 ha         1 Z3F       0.168000
     37 H12         -4.2630    16.1420   -20.1940 ha         1 Z3F       0.132000
     38 H13         -2.5820    16.7700   -18.5330 ha         1 Z3F       0.118000
     39 H14         -1.0810    19.4780   -15.5500 hc         1 Z3F       0.051200
     40 H15         -1.9580    20.1240   -14.1710 hc         1 Z3F       0.051200
     41 H16          0.8960    19.0320   -14.1760 hc         1 Z3F       0.051200
     42 H17          0.4190    20.7060   -13.9480 hc         1 Z3F       0.051200
     43 H18          1.0060    19.5710   -11.8110 h1         1 Z3F       0.056200
     44 H19         -0.6400    20.1960   -11.8090 h1         1 Z3F       0.056200
     45 H20         -0.3830    15.7110   -12.7470 h1         1 Z3F       0.054200
     46 H21          0.7660    14.8250   -11.7570 h1         1 Z3F       0.054200
     47 H22         -2.2680    14.4690   -11.7840 h1         1 Z3F       0.039950
     48 H23         -1.0540    13.3570   -12.4300 h1         1 Z3F       0.039950
     49 H25         -2.0310    17.1940   -16.3980 hn         1 Z3F       0.154000
     50 H4          -1.0990    13.8920    -8.3210 h1         1 Z3F       0.039950
@<TRIPOS>BOND
     1     1     7 1   
     2     1    23 1   
     3     1    24 2   
     4     2    20 1   
     5     2    27 1   
     6     2    28 1   
     7     2    29 1   
     8     3     4 1   
     9     3    20 1   
    10     3    30 1   
    11     3    50 1   
    12     4    21 1   
    13     4    31 1   
    14     4    32 1   
    15     5    21 1   
    16     5    22 1   
    17     5    25 2   
    18     6     7 1   
    19     6    22 1   
    20     6    33 1   
    21     6    34 1   
    22     7    14 1   
    23     7    35 1   
    24     8     9 ar  
    25     8    13 ar  
    26     8    23 1   
    27     9    10 ar  
    28     9    36 1   
    29    10    11 ar  
    30    10    19 1   
    31    11    12 ar  
    32    11    26 1   
    33    12    13 ar  
    34    12    37 1   
    35    13    38 1   
    36    14    15 1   
    37    14    39 1   
    38    14    40 1   
    39    15    16 1   
    40    15    41 1   
    41    15    42 1   
    42    16    22 1   
    43    16    43 1   
    44    16    44 1   
    45    17    18 1   
    46    17    21 1   
    47    17    45 1   
    48    17    46 1   
    49    18    20 1   
    50    18    47 1   
    51    18    48 1   
    52    23    49 1   
@<TRIPOS>SUBSTRUCTURE
     1 Z3F         1 TEMP              0 ****  ****    0 ROOT
