@<TRIPOS>MOLECULE
Z3F
   50    52     1     0     0
SMALL
No Charge or Current Charge


@<TRIPOS>ATOM
      1 C10         -3.0600    18.3190   -14.8900 c          1 Z3F       0.611100
      2 C01         -1.6420    11.8980   -10.4150 c3         1 Z3F       0.152100
      3 C03         -1.3620    14.1130    -9.3650 c6         1 Z3F       0.152800
      4 C04         -0.5870    15.4600    -9.3870 c6         1 Z3F       0.096500
      5 C06         -0.2210    17.5050   -10.7870 c          1 Z3F       0.650100
      6 C08         -1.7560    18.0580   -12.6940 c6         1 Z3F       0.107000
      7 C09         -1.7070    18.5020   -14.1740 c6         1 Z3F      -0.158700
      8 C13         -4.0820    16.9260   -16.7950 ca         1 Z3F       0.012000
      9 C14         -5.4120    17.4010   -16.7670 ca         1 Z3F      -0.176000
     10 C15         -6.3630    16.8980   -17.6700 ca         1 Z3F       0.210000
     11 C17         -6.0040    15.9160   -18.6120 ca         1 Z3F       0.036000
     12 C19         -4.6840    15.4390   -18.6450 ca         1 Z3F      -0.047000
     13 C20         -3.7310    15.9430   -17.7410 ca         1 Z3F      -0.182000
     14 C21         -1.0840    19.9030   -14.3740 c6         1 Z3F      -0.070400
     15 C22          0.2900    19.9610   -13.6780 c6         1 Z3F      -0.086400
     16 C23          0.1960    19.5370   -12.1920 c6         1 Z3F       0.091000
     17 C25         -0.3510    15.2250   -11.8570 c6         1 Z3F       0.096500
     18 C26         -1.1460    13.8930   -11.7800 c6         1 Z3F       0.152800
     19 F16         -7.6310    17.3680   -17.6250 f          1 Z3F      -0.158000
     20 N02         -0.9580    13.2070   -10.4730 n3         1 Z3F      -0.716600
     21 N05         -0.6100    16.1530   -10.7090 n          1 Z3F      -0.415800
     22 N07         -0.4420    18.2020   -11.9940 n          1 Z3F      -0.414800
     23 N12         -3.0620    17.3820   -15.9160 ns         1 Z3F      -0.147000
     24 O11         -4.0410    18.9680   -14.5480 o          1 Z3F      -0.567100
     25 O24          0.2980    18.0620    -9.8290 o          1 Z3F      -0.619100
     26 Cl1         -7.1890    15.2770   -19.7510 cl         1 Z3F      -0.167000
     27 H1          -1.4440    11.3990    -9.4570 h1         1 Z3F       0.032700
     28 H2          -2.7290    12.0170   -10.5230 h1         1 Z3F       0.032700
     29 H3          -1.2860    11.2380   -11.2180 h1         1 Z3F       0.032700
     30 H5          -2.4390    14.3300    -9.4300 h1         1 Z3F       0.039950
     31 H6           0.4600    15.2700    -9.1110 h1         1 Z3F       0.054200
     32 H7          -1.0120    16.1210    -8.6180 h1         1 Z3F       0.054200
     33 H8          -2.4880    18.6860   -12.1660 h1         1 Z3F       0.063700
     34 H9          -2.1400    17.0310   -12.6300 h1         1 Z3F       0.063700
     35 H10         -1.0190    17.7990   -14.6650 hc         1 Z3F       0.066700
     36 H11         -5.7340    18.1570   -16.0590 ha         1 Z3F       0.168000
     37 H12         -4.3990    14.6800   -19.3700 ha         1 Z3F       0.132000
     38 H13         -2.7120    15.5640   -17.7780 ha         1 Z3F       0.118000
     39 H14         -0.9730    20.1260   -15.4450 hc         1 Z3F       0.051200
     40 H15         -1.7460    20.6730   -13.9550 hc         1 Z3F       0.051200
     41 H16          0.9960    19.2990   -14.1980 hc         1 Z3F       0.051200
     42 H17          0.7050    20.9750   -13.7490 hc         1 Z3F       0.051200
     43 H18          1.2090    19.5260   -11.7660 h1         1 Z3F       0.056200
     44 H19         -0.3830    20.2890   -11.6370 h1         1 Z3F       0.056200
     45 H20         -0.5510    15.7040   -12.8220 h1         1 Z3F       0.054200
     46 H21          0.7210    14.9820   -11.8550 h1         1 Z3F       0.054200
     47 H22         -2.2120    14.1090   -11.9450 h1         1 Z3F       0.039950
     48 H23         -0.8180    13.2410   -12.6030 h1         1 Z3F       0.039950
     49 H25         -2.1660    16.9380   -16.0710 hn         1 Z3F       0.154000
     50 H4          -1.1920    13.6270    -8.3920 h1         1 Z3F       0.039950
@<TRIPOS>BOND
     1     1     7 1   
     2     1    23 1   
     3     1    24 2   
     4     2    20 1   
     5     2    27 1   
     6     2    28 1   
     7     2    29 1   
     8     3     4 1   
     9     3    20 1   
    10     3    30 1   
    11     3    50 1   
    12     4    21 1   
    13     4    31 1   
    14     4    32 1   
    15     5    21 1   
    16     5    22 1   
    17     5    25 2   
    18     6     7 1   
    19     6    22 1   
    20     6    33 1   
    21     6    34 1   
    22     7    14 1   
    23     7    35 1   
    24     8     9 ar  
    25     8    13 ar  
    26     8    23 1   
    27     9    10 ar  
    28     9    36 1   
    29    10    11 ar  
    30    10    19 1   
    31    11    12 ar  
    32    11    26 1   
    33    12    13 ar  
    34    12    37 1   
    35    13    38 1   
    36    14    15 1   
    37    14    39 1   
    38    14    40 1   
    39    15    16 1   
    40    15    41 1   
    41    15    42 1   
    42    16    22 1   
    43    16    43 1   
    44    16    44 1   
    45    17    18 1   
    46    17    21 1   
    47    17    45 1   
    48    17    46 1   
    49    18    20 1   
    50    18    47 1   
    51    18    48 1   
    52    23    49 1   
@<TRIPOS>SUBSTRUCTURE
     1 Z3F         1 TEMP              0 ****  ****    0 ROOT
