@<TRIPOS>MOLECULE
Z3H
   28    29     1     0     0
SMALL
No Charge or Current Charge


@<TRIPOS>ATOM
      1 C10         26.5740   -36.6240     6.5280 ca         1 Z3H       0.151100
      2 C13         26.6250   -39.2040     7.6370 ca         1 Z3H      -0.150000
      3 C15         27.0820   -36.8080     7.8370 ca         1 Z3H      -0.181300
      4 C01         29.5050   -35.3290    11.2580 c3         1 Z3H      -0.345100
      5 S02         27.7890   -34.8520    11.2880 s6         1 Z3H       1.199100
      6 O03         27.1930   -35.3940    12.5090 o          1 Z3H      -0.543500
      7 O04         27.6430   -33.4380    10.9470 o          1 Z3H      -0.543500
      8 C06         27.6110   -35.6180     8.6520 c6         1 Z3H       0.293800
      9 C07         27.1890   -34.2740     8.0160 c6         1 Z3H      -0.147400
     10 C08         27.3650   -34.3330     6.4910 c6         1 Z3H       0.167600
     11 O09         26.5500   -35.3810     5.9370 os         1 Z3H      -0.342100
     12 C11         26.0710   -37.7150     5.8010 ca         1 Z3H      -0.147000
     13 C12         26.0950   -39.0060     6.3520 ca         1 Z3H      -0.069000
     14 C14         27.1180   -38.1140     8.3750 ca         1 Z3H      -0.052000
     15 H1          26.6520   -40.2040     8.0650 ha         1 Z3H       0.117000
     16 H2          29.9830   -34.8750    12.1320 h1         1 Z3H       0.103700
     17 H3          29.5440   -36.4210    11.3080 h1         1 Z3H       0.103700
     18 H4          29.9460   -34.9520    10.3310 h1         1 Z3H       0.103700
     19 H5          26.1600   -35.4900    10.0980 hn         1 Z3H       0.500000
     20 H6          28.7090   -35.6900     8.6240 h1         1 Z3H       0.067700
     21 H7          27.7980   -33.4500     8.4080 hc         1 Z3H       0.071200
     22 H8          26.1410   -34.0460     8.2490 hc         1 Z3H       0.071200
     23 H9          28.4180   -34.5310     6.2410 h1         1 Z3H       0.060200
     24 H10         27.0790   -33.3760     6.0320 h1         1 Z3H       0.060200
     25 H11         25.6720   -37.5590     4.8020 ha         1 Z3H       0.129000
     26 H12         25.7100   -39.8500     5.7840 ha         1 Z3H       0.117000
     27 H13         27.5230   -38.2870     9.3700 ha         1 Z3H       0.114000
     28 N05         27.1420   -35.7470    10.0430 n7         1 Z3H      -0.909300
@<TRIPOS>BOND
     1     1     3 ar  
     2     1    11 1   
     3     1    12 ar  
     4     2    13 ar  
     5     2    14 ar  
     6     2    15 1   
     7     3     8 1   
     8     3    14 ar  
     9     4     5 1   
    10     4    16 1   
    11     4    17 1   
    12     4    18 1   
    13     5     6 2   
    14     5     7 2   
    15     5    28 1   
    16     8     9 1   
    17     8    20 1   
    18     8    28 1   
    19     9    10 1   
    20     9    21 1   
    21     9    22 1   
    22    10    11 1   
    23    10    23 1   
    24    10    24 1   
    25    12    13 ar  
    26    12    25 1   
    27    13    26 1   
    28    14    27 1   
    29    19    28 1   
@<TRIPOS>SUBSTRUCTURE
     1 Z3H         1 TEMP              0 ****  ****    0 ROOT
