@<TRIPOS>MOLECULE
Z3H
   28    29     1     0     0
SMALL
abcg2


@<TRIPOS>ATOM
      1 C10         26.6130   -36.5720     6.5150 ca         1 Z3H       0.151100
      2 C13         26.8980   -39.0650     7.7230 ca         1 Z3H      -0.150000
      3 C15         27.1330   -36.6530     7.8100 ca         1 Z3H      -0.181300
      4 C01         29.3440   -35.9630    11.4880 c3         1 Z3H      -0.345100
      5 S02         28.0760   -34.7730    11.1290 s6         1 Z3H       1.199100
      6 O03         27.2130   -34.6400    12.2930 o          1 Z3H      -0.543500
      7 O04         28.7300   -33.5860    10.5910 o          1 Z3H      -0.543500
      8 C06         27.5230   -35.3950     8.5570 c6         1 Z3H       0.293800
      9 C07         26.8700   -34.1820     7.9060 c6         1 Z3H      -0.147400
     10 C08         27.0480   -34.2500     6.4070 c6         1 Z3H       0.167600
     11 O09         26.4460   -35.4100     5.8500 os         1 Z3H      -0.342100
     12 C11         26.2230   -37.7300     5.8410 ca         1 Z3H      -0.147000
     13 C12         26.3620   -38.9670     6.4430 ca         1 Z3H      -0.069000
     14 C14         27.2710   -37.9110     8.3910 ca         1 Z3H      -0.052000
     15 H1          27.0160   -40.0310     8.1970 ha         1 Z3H       0.117000
     16 H2          29.9880   -35.5460    12.2600 h1         1 Z3H       0.103700
     17 H3          28.8780   -36.8810    11.8380 h1         1 Z3H       0.103700
     18 H4          29.9240   -36.1570    10.5880 h1         1 Z3H       0.103700
     19 H5          26.1880   -35.5140    10.1760 hn         1 Z3H       0.500000
     20 H6          28.6110   -35.2820     8.4980 h1         1 Z3H       0.067700
     21 H7          27.3170   -33.2620     8.2820 hc         1 Z3H       0.071200
     22 H8          25.8050   -34.1550     8.1570 hc         1 Z3H       0.071200
     23 H9          28.1130   -34.2340     6.1490 h1         1 Z3H       0.060200
     24 H10         26.5750   -33.4000     5.9170 h1         1 Z3H       0.060200
     25 H11         25.8130   -37.6470     4.8420 ha         1 Z3H       0.129000
     26 H12         26.0560   -39.8580     5.9090 ha         1 Z3H       0.117000
     27 H13         27.6720   -37.9780     9.3940 ha         1 Z3H       0.114000
     28 N05         27.1810   -35.5290     9.9670 n7         1 Z3H      -0.909300
@<TRIPOS>BOND
     1     1     3 ar  
     2     1    11 1   
     3     1    12 ar  
     4     2    13 ar  
     5     2    14 ar  
     6     2    15 1   
     7     3     8 1   
     8     3    14 ar  
     9     4     5 1   
    10     4    16 1   
    11     4    17 1   
    12     4    18 1   
    13     5     6 2   
    14     5     7 2   
    15     5    28 1   
    16     8     9 1   
    17     8    20 1   
    18     8    28 1   
    19     9    10 1   
    20     9    21 1   
    21     9    22 1   
    22    10    11 1   
    23    10    23 1   
    24    10    24 1   
    25    12    13 ar  
    26    12    25 1   
    27    13    26 1   
    28    14    27 1   
    29    19    28 1   
@<TRIPOS>SUBSTRUCTURE
     1 Z3H         1 TEMP              0 ****  ****    0 ROOT
