@<TRIPOS>MOLECULE
Z3J
   54    58     1     0     0
SMALL
abcg2


@<TRIPOS>ATOM
      1 C10          0.7060    27.9620     8.5190 ca         1 Z3J      -0.186000
      2 C11          1.5290    28.9560     7.9650 ca         1 Z3J       0.123100
      3 C01          4.2940    27.1420     4.6060 c3         1 Z3J       0.099300
      4 C03          5.6970    27.1480     6.6650 c          1 Z3J       0.664300
      5 C05          4.5000    26.6510     7.3970 cc         1 Z3J      -0.193400
      6 C06          4.3080    25.3650     7.8100 cd         1 Z3J       0.151900
      7 C08          2.4380    26.4010     8.2540 ca         1 Z3J       0.016100
      8 C09          1.1520    26.6650     8.6800 ca         1 Z3J      -0.057000
      9 C13          2.8320    28.6850     7.5470 ca         1 Z3J      -0.075300
     10 C14          3.7430    29.7700     7.0430 c3         1 Z3J       0.222100
     11 C16          4.6390    30.3490     9.2330 c5         1 Z3J       0.158800
     12 C17          6.0270    30.6820     9.7810 c5         1 Z3J      -0.063400
     13 C18          6.8800    30.9790     8.5350 cy         1 Z3J      -0.118000
     14 C19          7.7580    32.2360     8.5030 cy         1 Z3J       0.151100
     15 C21          8.2220    30.2410     8.4060 cy         1 Z3J       0.151100
     16 C22          5.8970    30.8200     7.3790 c5         1 Z3J       0.176800
     17 C23          3.2770    27.3610     7.6920 ca         1 Z3J      -0.028800
     18 C24          5.1160    24.1540     7.7510 ca         1 Z3J      -0.103800
     19 C25          6.4980    24.1780     7.9460 ca         1 Z3J      -0.033000
     20 C26          7.2470    23.0160     7.8900 ca         1 Z3J      -0.188000
     21 C27          6.6290    21.7920     7.6440 ca         1 Z3J       0.160100
     22 C29          5.2470    21.7520     7.4600 ca         1 Z3J      -0.188000
     23 C30          4.5060    22.9160     7.5160 ca         1 Z3J      -0.033000
     24 N02          5.4790    27.4590     5.3750 ns         1 Z3J      -0.507900
     25 N15          4.9140    29.8870     7.8840 n3         1 Z3J      -0.708600
     26 O04          6.8010    27.2370     7.1840 o          1 Z3J      -0.603100
     27 O07          3.0650    25.2050     8.3240 os         1 Z3J      -0.167200
     28 O12          1.0750    30.2250     7.8370 oh         1 Z3J      -0.539100
     29 O20          8.9500    31.4700     8.3050 oq         1 Z3J      -0.459000
     30 O28          7.3040    20.6330     7.5800 oh         1 Z3J      -0.530100
     31 H1          -0.2980    28.2200     8.8370 ha         1 Z3J       0.117000
     32 H2           4.5050    27.3530     3.5620 h1         1 Z3J       0.038033
     33 H3           4.0250    26.0900     4.6900 h1         1 Z3J       0.038033
     34 H4           3.4310    27.7410     4.8970 h1         1 Z3J       0.038033
     35 H5           0.5210    25.9020     9.1170 ha         1 Z3J       0.133000
     36 H6           4.0790    29.5410     6.0290 h1         1 Z3J       0.047700
     37 H7           3.2040    30.7250     6.9760 h1         1 Z3J       0.047700
     38 H8           4.0040    31.2510     9.2260 h1         1 Z3J       0.039700
     39 H9           4.1190    29.5880     9.8180 h1         1 Z3J       0.039700
     40 H10          6.4410    29.8350    10.3300 hc         1 Z3J       0.053200
     41 H11          5.9970    31.5270    10.4690 hc         1 Z3J       0.053200
     42 H12          7.5620    32.9260     7.6740 h1         1 Z3J       0.054200
     43 H13          7.7780    32.8110     9.4350 h1         1 Z3J       0.054200
     44 H14          8.5100    29.6610     9.2900 h1         1 Z3J       0.054200
     45 H15          8.3350    29.6100     7.5210 h1         1 Z3J       0.054200
     46 H16          6.3620    30.4500     6.4610 h1         1 Z3J       0.038200
     47 H17          5.4470    31.8020     7.1460 h1         1 Z3J       0.038200
     48 H18          6.9970    25.1110     8.1640 ha         1 Z3J       0.136500
     49 H19          8.3180    23.0640     8.0530 ha         1 Z3J       0.125500
     50 H20          4.7570    20.8050     7.2690 ha         1 Z3J       0.125500
     51 H21          3.4370    22.8550     7.3610 ha         1 Z3J       0.136500
     52 H22          6.2820    27.7990     4.8650 hn         1 Z3J       0.313500
     53 H24          0.1750    30.2960     8.1730 ho         1 Z3J       0.465000
     54 H25          8.2480    20.7780     7.7180 ho         1 Z3J       0.469000
@<TRIPOS>BOND
     1     1     2 ar  
     2     1     8 ar  
     3     1    31 1   
     4     2     9 ar  
     5     2    28 1   
     6     3    24 1   
     7     3    32 1   
     8     3    33 1   
     9     3    34 1   
    10     4     5 1   
    11     4    24 1   
    12     4    26 2   
    13     5     6 2   
    14     5    17 1   
    15     6    18 1   
    16     6    27 1   
    17     7     8 ar  
    18     7    17 ar  
    19     7    27 1   
    20     8    35 1   
    21     9    10 1   
    22     9    17 ar  
    23    10    25 1   
    24    10    36 1   
    25    10    37 1   
    26    11    12 1   
    27    11    25 1   
    28    11    38 1   
    29    11    39 1   
    30    12    13 1   
    31    12    40 1   
    32    12    41 1   
    33    13    14 1   
    34    13    15 1   
    35    13    16 1   
    36    14    29 1   
    37    14    42 1   
    38    14    43 1   
    39    15    29 1   
    40    15    44 1   
    41    15    45 1   
    42    16    25 1   
    43    16    46 1   
    44    16    47 1   
    45    18    19 ar  
    46    18    23 ar  
    47    19    20 ar  
    48    19    48 1   
    49    20    21 ar  
    50    20    49 1   
    51    21    22 ar  
    52    21    30 1   
    53    22    23 ar  
    54    22    50 1   
    55    23    51 1   
    56    24    52 1   
    57    28    53 1   
    58    30    54 1   
@<TRIPOS>SUBSTRUCTURE
     1 Z3J         1 TEMP              0 ****  ****    0 ROOT
