@<TRIPOS>MOLECULE
Z3J
   54    58     1     0     0
SMALL
No Charge or Current Charge


@<TRIPOS>ATOM
      1 C10          0.6390    28.0980     7.9830 ca         1 Z3J      -0.186000
      2 C11          1.5680    29.0450     7.4940 ca         1 Z3J       0.123100
      3 C01          4.4710    27.3300     4.4160 c3         1 Z3J       0.099300
      4 C03          5.7710    26.9590     6.5450 c          1 Z3J       0.664300
      5 C05          4.5230    26.5680     7.2390 cc         1 Z3J      -0.193400
      6 C06          4.2950    25.3470     7.8730 cd         1 Z3J       0.151900
      7 C08          2.3600    26.4340     7.9500 ca         1 Z3J       0.016100
      8 C09          1.0430    26.7790     8.2550 ca         1 Z3J      -0.057000
      9 C13          2.9190    28.6810     7.2240 ca         1 Z3J      -0.075300
     10 C14          3.9590    29.7640     6.8910 c3         1 Z3J       0.222100
     11 C16          4.9020    29.9080     9.2200 c5         1 Z3J       0.158800
     12 C17          6.3640    29.9850     9.7280 c5         1 Z3J      -0.063400
     13 C18          6.9400    31.0820     8.7890 cy         1 Z3J      -0.118000
     14 C19          6.8620    32.5860     9.2220 cy         1 Z3J       0.151100
     15 C21          8.4720    31.4010     8.7690 cy         1 Z3J       0.151100
     16 C22          6.2290    30.6850     7.4680 c5         1 Z3J       0.176800
     17 C23          3.2620    27.3110     7.3840 ca         1 Z3J      -0.028800
     18 C24          5.0350    24.0630     7.8880 ca         1 Z3J      -0.103800
     19 C25          6.0370    23.7480     6.9420 ca         1 Z3J      -0.033000
     20 C26          6.7040    22.5100     6.9880 ca         1 Z3J      -0.188000
     21 C27          6.3760    21.5690     7.9730 ca         1 Z3J       0.160100
     22 C29          5.3730    21.8590     8.9050 ca         1 Z3J      -0.188000
     23 C30          4.7010    23.0930     8.8600 ca         1 Z3J      -0.033000
     24 N02          5.6310    27.5230     5.2960 ns         1 Z3J      -0.507900
     25 N15          5.1450    29.7280     7.7750 n3         1 Z3J      -0.708600
     26 O04          6.8920    26.7220     6.9720 o          1 Z3J      -0.603100
     27 O07          2.9800    25.2670     8.2520 os         1 Z3J      -0.167200
     28 O12          1.1400    30.3310     7.3170 oh         1 Z3J      -0.539100
     29 O20          8.1140    32.7970     8.4830 oq         1 Z3J      -0.459000
     30 O28          7.0180    20.3700     8.0240 oh         1 Z3J      -0.530100
     31 H1          -0.3840    28.3940     8.2020 ha         1 Z3J       0.117000
     32 H2           4.7600    27.5620     3.3830 h1         1 Z3J       0.038033
     33 H3           4.1400    26.2850     4.4660 h1         1 Z3J       0.038033
     34 H4           3.6420    27.9840     4.7060 h1         1 Z3J       0.038033
     35 H5           0.3620    26.0560     8.6990 ha         1 Z3J       0.133000
     36 H6           4.2680    29.6660     5.8450 h1         1 Z3J       0.047700
     37 H7           3.5020    30.7580     6.9670 h1         1 Z3J       0.047700
     38 H8           4.3480    30.8330     9.4330 h1         1 Z3J       0.039700
     39 H9           4.3540    29.0630     9.6610 h1         1 Z3J       0.039700
     40 H10          6.8760    29.0230     9.6110 hc         1 Z3J       0.053200
     41 H11          6.4170    30.2530    10.7890 hc         1 Z3J       0.053200
     42 H12          6.0240    33.1610     8.8120 h1         1 Z3J       0.054200
     43 H13          6.9890    32.7660    10.2970 h1         1 Z3J       0.054200
     44 H14          8.9780    31.3000     9.7380 h1         1 Z3J       0.054200
     45 H15          9.0480    30.9350     7.9620 h1         1 Z3J       0.054200
     46 H16          6.9240    30.2270     6.7510 h1         1 Z3J       0.038200
     47 H17          5.8250    31.5730     6.9620 h1         1 Z3J       0.038200
     48 H18          6.2860    24.4340     6.1390 ha         1 Z3J       0.136500
     49 H19          7.4700    22.2890     6.2480 ha         1 Z3J       0.125500
     50 H20          5.1110    21.1270     9.6660 ha         1 Z3J       0.125500
     51 H21          3.9280    23.3000     9.5980 ha         1 Z3J       0.136500
     52 H22          6.4980    27.8220     4.8680 hn         1 Z3J       0.313500
     53 H24          0.1920    30.3800     7.5650 ho         1 Z3J       0.465000
     54 H25          7.6800    20.3430     7.3010 ho         1 Z3J       0.469000
@<TRIPOS>BOND
     1     1     2 ar  
     2     1     8 ar  
     3     1    31 1   
     4     2     9 ar  
     5     2    28 1   
     6     3    24 1   
     7     3    32 1   
     8     3    33 1   
     9     3    34 1   
    10     4     5 1   
    11     4    24 1   
    12     4    26 2   
    13     5     6 2   
    14     5    17 1   
    15     6    18 1   
    16     6    27 1   
    17     7     8 ar  
    18     7    17 ar  
    19     7    27 1   
    20     8    35 1   
    21     9    10 1   
    22     9    17 ar  
    23    10    25 1   
    24    10    36 1   
    25    10    37 1   
    26    11    12 1   
    27    11    25 1   
    28    11    38 1   
    29    11    39 1   
    30    12    13 1   
    31    12    40 1   
    32    12    41 1   
    33    13    14 1   
    34    13    15 1   
    35    13    16 1   
    36    14    29 1   
    37    14    42 1   
    38    14    43 1   
    39    15    29 1   
    40    15    44 1   
    41    15    45 1   
    42    16    25 1   
    43    16    46 1   
    44    16    47 1   
    45    18    19 ar  
    46    18    23 ar  
    47    19    20 ar  
    48    19    48 1   
    49    20    21 ar  
    50    20    49 1   
    51    21    22 ar  
    52    21    30 1   
    53    22    23 ar  
    54    22    50 1   
    55    23    51 1   
    56    24    52 1   
    57    28    53 1   
    58    30    54 1   
@<TRIPOS>SUBSTRUCTURE
     1 Z3J         1 TEMP              0 ****  ****    0 ROOT
