@<TRIPOS>MOLECULE
Z3N
   73    78     1     0     0
SMALL
abcg2


@<TRIPOS>ATOM
      1 O1           2.2730     8.5040    16.9480 o          1 Z3N      -0.508000
      2 C2           1.9440     8.4950    18.1160 c          1 Z3N       0.586600
      3 N3           2.2880     7.5670    19.0610 n          1 Z3N      -0.240400
      4 C4           3.1070     6.4460    18.8350 ca         1 Z3N      -0.022000
      5 C5           2.7830     5.2230    19.4220 ca         1 Z3N      -0.140000
      6 C6           3.6010     4.1280    19.2090 ca         1 Z3N      -0.096000
      7 C7           4.7350     4.2300    18.4150 ca         1 Z3N      -0.122000
      8 C8           5.0700     5.4440    17.8280 ca         1 Z3N      -0.054300
      9 C9           6.2830     5.6330    16.9330 cy         1 Z3N      -0.061000
     10 C10          7.0580     6.8300    17.3590 cc         1 Z3N       0.398800
     11 N11          7.2580     7.9150    16.6630 nd         1 Z3N      -0.358000
     12 N12          8.0180     8.7580    17.4090 nd         1 Z3N      -0.357000
     13 C13          8.2590     8.1600    18.5380 cc         1 Z3N       0.367400
     14 N14          7.6780     6.9400    18.5610 na         1 Z3N      -0.363000
     15 C15          7.6960     5.9850    19.6470 c3         1 Z3N       0.062900
     16 C16          5.8750     5.5950    15.4340 cy         1 Z3N      -0.070400
     17 C17          6.2730     4.1090    15.3930 cy         1 Z3N      -0.080700
     18 C18          6.9580     3.5770    14.1560 c3         1 Z3N      -0.079100
     19 C19          7.1210     4.3570    16.6520 cy         1 Z3N      -0.070400
     20 C20          4.2500     6.5490    18.0500 ca         1 Z3N      -0.106000
     21 C21          1.6800     7.8180    20.3580 c5         1 Z3N       0.140300
     22 C22          0.9400     9.0980    20.1290 ca         1 Z3N      -0.034300
     23 C23          0.1920     9.8920    20.9880 ca         1 Z3N      -0.192300
     24 C24          0.0580     9.5120    22.4300 c3         1 Z3N       0.361300
     25 F25          1.2500     9.5140    23.0450 f          1 Z3N      -0.112000
     26 F26         -0.7390    10.3340    23.1130 f          1 Z3N      -0.112000
     27 F27         -0.4400     8.2750    22.5670 f          1 Z3N      -0.112000
     28 C28         -0.3920    11.0460    20.4820 ca         1 Z3N      -0.031000
     29 C29         -0.2550    11.4200    19.1420 ca         1 Z3N      -0.137300
     30 C30         -0.9470    12.6620    18.6210 c3         1 Z3N       0.224100
     31 N31         -2.3100    12.4730    18.1630 n3         1 Z3N      -0.730600
     32 C32         -2.4270    11.6120    17.0010 c6         1 Z3N       0.174800
     33 C33         -3.8260    11.6820    16.3960 c6         1 Z3N      -0.063700
     34 C34         -3.9370    10.7730    15.1810 c3         1 Z3N      -0.088100
     35 C35         -4.8590    11.3310    17.4620 c6         1 Z3N      -0.073400
     36 C36         -4.6730    12.1900    18.7060 c6         1 Z3N      -0.074400
     37 C37         -3.2420    12.1030    19.2120 c6         1 Z3N       0.172800
     38 C38          0.5010    10.6200    18.2960 ca         1 Z3N      -0.002000
     39 C39          1.0860     9.4750    18.8100 ca         1 Z3N      -0.168600
     40 H1           1.8980     5.1180    20.0350 ha         1 Z3N       0.117000
     41 H2           3.3480     3.1800    19.6650 ha         1 Z3N       0.115000
     42 H3           5.3510     3.3540    18.2680 ha         1 Z3N       0.116000
     43 H4           8.8410     8.5520    19.3580 h5         1 Z3N       0.060100
     44 H5           8.4460     6.2900    20.3720 h1         1 Z3N       0.056033
     45 H6           6.7260     5.9400    20.1390 h1         1 Z3N       0.056033
     46 H7           7.9530     4.9950    19.2780 h1         1 Z3N       0.056033
     47 H8           6.5480     6.2020    14.8280 hc         1 Z3N       0.064700
     48 H9           4.8450     5.8670    15.2020 hc         1 Z3N       0.064700
     49 H10          5.4120     3.4830    15.6410 hc         1 Z3N       0.056700
     50 H11          7.3090     2.5540    14.3060 hc         1 Z3N       0.037033
     51 H12          6.2800     3.5700    13.3010 hc         1 Z3N       0.037033
     52 H13          7.8220     4.1900    13.8910 hc         1 Z3N       0.037033
     53 H14          7.1790     3.5800    17.4140 hc         1 Z3N       0.064700
     54 H15          8.1410     4.6370    16.3810 hc         1 Z3N       0.064700
     55 H16          4.5160     7.5020    17.6130 ha         1 Z3N       0.148000
     56 H17          0.9980     7.0130    20.6420 h1         1 Z3N       0.077200
     57 H18          2.4450     7.9010    21.1330 h1         1 Z3N       0.077200
     58 H19         -0.9650    11.6920    21.1360 ha         1 Z3N       0.133000
     59 H20         -0.3650    13.0680    17.7900 h1         1 Z3N       0.063200
     60 H21         -0.9560    13.4240    19.4050 h1         1 Z3N       0.063200
     61 H23         -2.2050    10.5560    17.2410 h1         1 Z3N       0.032200
     62 H24         -1.6880    11.9250    16.2580 h1         1 Z3N       0.032200
     63 H25         -3.9980    12.7170    16.0780 hc         1 Z3N       0.059700
     64 H26         -4.9340    10.8290    14.7410 hc         1 Z3N       0.035033
     65 H27         -3.2160    11.0450    14.4080 hc         1 Z3N       0.035033
     66 H28         -3.7550     9.7300    15.4530 hc         1 Z3N       0.035033
     67 H29         -5.8700    11.4460    17.0630 hc         1 Z3N       0.040200
     68 H30         -4.7480    10.2730    17.7290 hc         1 Z3N       0.040200
     69 H31         -4.9080    13.2330    18.4730 hc         1 Z3N       0.047700
     70 H32         -5.3570    11.8770    19.4980 hc         1 Z3N       0.047700
     71 H33         -3.0590    11.0820    19.5890 h1         1 Z3N       0.029700
     72 H34         -3.1020    12.7810    20.0580 h1         1 Z3N       0.029700
     73 H35          0.6430    10.8920    17.2570 ha         1 Z3N       0.143000
@<TRIPOS>BOND
     1     1     2 2   
     2     2     3 1   
     3     2    39 1   
     4     3     4 1   
     5     3    21 1   
     6     4     5 ar  
     7     4    20 ar  
     8     5     6 ar  
     9     5    40 1   
    10     6     7 ar  
    11     6    41 1   
    12     7     8 ar  
    13     7    42 1   
    14     8     9 1   
    15     8    20 ar  
    16     9    10 1   
    17     9    16 1   
    18     9    19 1   
    19    10    11 2   
    20    10    14 1   
    21    11    12 1   
    22    12    13 2   
    23    13    14 1   
    24    13    43 1   
    25    14    15 1   
    26    15    44 1   
    27    15    45 1   
    28    15    46 1   
    29    16    17 1   
    30    16    47 1   
    31    16    48 1   
    32    17    18 1   
    33    17    19 1   
    34    17    49 1   
    35    18    50 1   
    36    18    51 1   
    37    18    52 1   
    38    19    53 1   
    39    19    54 1   
    40    20    55 1   
    41    21    22 1   
    42    21    56 1   
    43    21    57 1   
    44    22    23 ar  
    45    22    39 ar  
    46    23    24 1   
    47    23    28 ar  
    48    24    25 1   
    49    24    26 1   
    50    24    27 1   
    51    28    29 ar  
    52    28    58 1   
    53    29    30 1   
    54    29    38 ar  
    55    30    31 1   
    56    30    59 1   
    57    30    60 1   
    58    31    32 1   
    59    31    37 1   
    60    32    33 1   
    61    32    61 1   
    62    32    62 1   
    63    33    34 1   
    64    33    35 1   
    65    33    63 1   
    66    34    64 1   
    67    34    65 1   
    68    34    66 1   
    69    35    36 1   
    70    35    67 1   
    71    35    68 1   
    72    36    37 1   
    73    36    69 1   
    74    36    70 1   
    75    37    71 1   
    76    37    72 1   
    77    38    39 ar  
    78    38    73 1   
@<TRIPOS>SUBSTRUCTURE
     1 Z3N         1 TEMP              0 ****  ****    0 ROOT
