@<TRIPOS>MOLECULE
Z3N
   73    78     1     0     0
SMALL
No Charge or Current Charge


@<TRIPOS>ATOM
      1 O1           2.3990     8.7190    17.1970 o          1 Z3N      -0.508000
      2 C2           2.0430     8.7080    18.3680 c          1 Z3N       0.586600
      3 N3           2.4260     7.7940    19.3760 n          1 Z3N      -0.240400
      4 C4           3.3790     6.7190    19.2350 ca         1 Z3N      -0.022000
      5 C5           3.1360     5.4910    19.8840 ca         1 Z3N      -0.140000
      6 C6           3.9670     4.3840    19.6570 ca         1 Z3N      -0.096000
      7 C7           5.0230     4.4690    18.7390 ca         1 Z3N      -0.122000
      8 C8           5.2410     5.6590    18.0150 ca         1 Z3N      -0.054300
      9 C9           6.3800     5.8040    16.9810 cy         1 Z3N      -0.061000
     10 C10          7.4470     6.6640    17.6180 cc         1 Z3N       0.398800
     11 N11          7.7420     7.8910    17.2120 nd         1 Z3N      -0.358000
     12 N12          8.7560     8.3800    17.9970 nd         1 Z3N      -0.357000
     13 C13          9.0750     7.4450    18.8740 cc         1 Z3N       0.367400
     14 N14          8.2800     6.3440    18.6690 na         1 Z3N      -0.363000
     15 C15          8.3130     5.0900    19.4380 c3         1 Z3N       0.062900
     16 C16          5.8560     6.2010    15.5400 cy         1 Z3N      -0.070400
     17 C17          5.6340     4.6760    15.2860 cy         1 Z3N      -0.080700
     18 C18          5.7380     4.1510    13.8480 c3         1 Z3N      -0.079100
     19 C19          6.8590     4.4900    16.2370 cy         1 Z3N      -0.070400
     20 C20          4.4030     6.7670    18.2650 ca         1 Z3N      -0.106000
     21 C21          1.7120     8.0610    20.6680 c5         1 Z3N       0.140300
     22 C22          0.9050     9.3040    20.3050 ca         1 Z3N      -0.034300
     23 C23          0.0420    10.0590    21.1280 ca         1 Z3N      -0.192300
     24 C24         -0.1800     9.6720    22.5960 c3         1 Z3N       0.361300
     25 F25          0.9750     9.7010    23.2980 f          1 Z3N      -0.112000
     26 F26         -1.0430    10.4940    23.2370 f          1 Z3N      -0.112000
     27 F27         -0.6820     8.4210    22.7100 f          1 Z3N      -0.112000
     28 C28         -0.6100    11.1780    20.5500 ca         1 Z3N      -0.031000
     29 C29         -0.4110    11.5240    19.1920 ca         1 Z3N      -0.137300
     30 C30         -1.1270    12.7340    18.5930 c3         1 Z3N       0.224100
     31 N31         -2.4520    12.4290    17.9950 n3         1 Z3N      -0.730600
     32 C32         -2.3780    11.5160    16.8190 c6         1 Z3N       0.174800
     33 C33         -3.7540    11.3730    16.1130 c6         1 Z3N      -0.063700
     34 C34         -3.6680    10.4270    14.8860 c3         1 Z3N      -0.088100
     35 C35         -4.8320    10.9010    17.1220 c6         1 Z3N      -0.073400
     36 C36         -4.8640    11.8370    18.3530 c6         1 Z3N      -0.074400
     37 C37         -3.4590    11.9650    18.9890 c6         1 Z3N       0.172800
     38 C38          0.4640    10.7560    18.3970 ca         1 Z3N      -0.002000
     39 C39          1.1000     9.6570    18.9850 ca         1 Z3N      -0.168600
     40 H1           2.3050     5.3840    20.5770 ha         1 Z3N       0.117000
     41 H2           3.7860     3.4520    20.1890 ha         1 Z3N       0.115000
     42 H3           5.6550     3.5980    18.5940 ha         1 Z3N       0.116000
     43 H4           9.8350     7.5010    19.6440 h5         1 Z3N       0.060100
     44 H5           9.2300     5.0430    20.0390 h1         1 Z3N       0.056033
     45 H6           7.4440     5.0440    20.1070 h1         1 Z3N       0.056033
     46 H7           8.2910     4.2310    18.7560 h1         1 Z3N       0.056033
     47 H8           6.6100     6.6610    14.8890 hc         1 Z3N       0.064700
     48 H9           4.9550     6.8230    15.4980 hc         1 Z3N       0.064700
     49 H10          4.6940     4.2970    15.7080 hc         1 Z3N       0.056700
     50 H11          5.7380     3.0540    13.8320 hc         1 Z3N       0.037033
     51 H12          4.8920     4.4970    13.2430 hc         1 Z3N       0.037033
     52 H13          6.6610     4.4940    13.3650 hc         1 Z3N       0.037033
     53 H14          6.8830     3.5590    16.8080 hc         1 Z3N       0.064700
     54 H15          7.8330     4.5900    15.7420 hc         1 Z3N       0.064700
     55 H16          4.5880     7.6890    17.7210 ha         1 Z3N       0.148000
     56 H17          1.0520     7.2320    20.9510 h1         1 Z3N       0.077200
     57 H18          2.4190     8.2580    21.4850 h1         1 Z3N       0.077200
     58 H19         -1.2830    11.7880    21.1500 ha         1 Z3N       0.133000
     59 H20         -0.4740    13.1840    17.8320 h1         1 Z3N       0.063200
     60 H21         -1.2420    13.4950    19.3780 h1         1 Z3N       0.063200
     61 H23         -2.0350    10.5190    17.1330 h1         1 Z3N       0.032200
     62 H24         -1.6450    11.8980    16.0920 h1         1 Z3N       0.032200
     63 H25         -4.0440    12.3590    15.7250 hc         1 Z3N       0.059700
     64 H26         -4.6340    10.3600    14.3700 hc         1 Z3N       0.035033
     65 H27         -2.9300    10.7880    14.1600 hc         1 Z3N       0.035033
     66 H28         -3.3750     9.4130    15.1830 hc         1 Z3N       0.035033
     67 H29         -5.8200    10.8810    16.6430 hc         1 Z3N       0.040200
     68 H30         -4.6170     9.8730    17.4470 hc         1 Z3N       0.040200
     69 H31         -5.2230    12.8310    18.0550 hc         1 Z3N       0.047700
     70 H32         -5.5760    11.4560    19.0970 hc         1 Z3N       0.047700
     71 H33         -3.1680    10.9870    19.4010 h1         1 Z3N       0.029700
     72 H34         -3.5160    12.6690    19.8320 h1         1 Z3N       0.029700
     73 H35          0.6410    11.0060    17.3520 ha         1 Z3N       0.143000
@<TRIPOS>BOND
     1     1     2 2   
     2     2     3 1   
     3     2    39 1   
     4     3     4 1   
     5     3    21 1   
     6     4     5 ar  
     7     4    20 ar  
     8     5     6 ar  
     9     5    40 1   
    10     6     7 ar  
    11     6    41 1   
    12     7     8 ar  
    13     7    42 1   
    14     8     9 1   
    15     8    20 ar  
    16     9    10 1   
    17     9    16 1   
    18     9    19 1   
    19    10    11 2   
    20    10    14 1   
    21    11    12 1   
    22    12    13 2   
    23    13    14 1   
    24    13    43 1   
    25    14    15 1   
    26    15    44 1   
    27    15    45 1   
    28    15    46 1   
    29    16    17 1   
    30    16    47 1   
    31    16    48 1   
    32    17    18 1   
    33    17    19 1   
    34    17    49 1   
    35    18    50 1   
    36    18    51 1   
    37    18    52 1   
    38    19    53 1   
    39    19    54 1   
    40    20    55 1   
    41    21    22 1   
    42    21    56 1   
    43    21    57 1   
    44    22    23 ar  
    45    22    39 ar  
    46    23    24 1   
    47    23    28 ar  
    48    24    25 1   
    49    24    26 1   
    50    24    27 1   
    51    28    29 ar  
    52    28    58 1   
    53    29    30 1   
    54    29    38 ar  
    55    30    31 1   
    56    30    59 1   
    57    30    60 1   
    58    31    32 1   
    59    31    37 1   
    60    32    33 1   
    61    32    61 1   
    62    32    62 1   
    63    33    34 1   
    64    33    35 1   
    65    33    63 1   
    66    34    64 1   
    67    34    65 1   
    68    34    66 1   
    69    35    36 1   
    70    35    67 1   
    71    35    68 1   
    72    36    37 1   
    73    36    69 1   
    74    36    70 1   
    75    37    71 1   
    76    37    72 1   
    77    38    39 ar  
    78    38    73 1   
@<TRIPOS>SUBSTRUCTURE
     1 Z3N         1 TEMP              0 ****  ****    0 ROOT
