@<TRIPOS>MOLECULE
Z3O
   35    37     1     0     0
SMALL
No Charge or Current Charge


@<TRIPOS>ATOM
      1 C10          6.8560   -18.9980    32.0370 ca         1 Z3O       0.088400
      2 C13          9.3350   -19.1860    30.7820 ca         1 Z3O      -0.107000
      3 C15          7.4090   -17.8820    31.4360 ca         1 Z3O      -0.112300
      4 C17          4.8660   -18.6780    27.9190 c2         1 Z3O      -0.332200
      5 C01          2.9360   -18.7770    26.2890 c3         1 Z3O      -0.081100
      6 C02          3.3750   -18.4200    27.7330 c6         1 Z3O      -0.007500
      7 C03          3.0400   -16.9530    28.0940 c6         1 Z3O      -0.084400
      8 C04          3.6850   -16.5780    29.4470 c6         1 Z3O       0.221800
      9 N05          5.1540   -16.8320    29.4130 nh         1 Z3O      -0.693400
     10 C06          6.0060   -16.0010    30.3000 c3         1 Z3O       0.264800
     11 C07          6.4770   -16.6940    31.6020 c5         1 Z3O      -0.163700
     12 C08          5.3570   -17.4120    32.3660 c2         1 Z3O       0.401200
     13 N09          5.6220   -18.6710    32.5960 ne         1 Z3O      -0.527100
     14 C11          7.5080   -20.2380    32.0330 ca         1 Z3O      -0.063000
     15 C12          8.7630   -20.3270    31.3940 ca         1 Z3O      -0.110000
     16 C14          8.6580   -17.9480    30.8010 ca         1 Z3O      -0.086000
     17 C16          5.6570   -17.9180    28.6940 c2         1 Z3O       0.029000
     18 H1          10.3040   -19.2640    30.2940 ha         1 Z3O       0.113000
     19 H3           3.1340   -19.8310    26.0630 hc         1 Z3O       0.031033
     20 H4           1.8610   -18.6060    26.1510 hc         1 Z3O       0.031033
     21 H5           3.4700   -18.1690    25.5490 hc         1 Z3O       0.031033
     22 H6           2.8200   -19.0910    28.4050 hc         1 Z3O       0.048700
     23 H7           3.4180   -16.2760    27.3150 hc         1 Z3O       0.046200
     24 H8           1.9530   -16.8080    28.1430 hc         1 Z3O       0.046200
     25 H9           3.4670   -15.5270    29.6850 h1         1 Z3O       0.036200
     26 H10          3.2260   -17.1960    30.2330 h1         1 Z3O       0.036200
     27 H11          6.8890   -15.6590    29.7440 h1         1 Z3O       0.050700
     28 H12          5.4550   -15.0970    30.5930 h1         1 Z3O       0.050700
     29 H13          6.9300   -15.9230    32.2330 hc         1 Z3O       0.089700
     30 H14          4.4360   -16.9510    32.7140 h4         1 Z3O       0.035800
     31 H15          7.0570   -21.1050    32.5070 ha         1 Z3O       0.130000
     32 H16          9.2930   -21.2760    31.3740 ha         1 Z3O       0.115000
     33 H17          9.0940   -17.0690    30.3330 ha         1 Z3O       0.113000
     34 H18          6.7280   -18.1140    28.8000 h4         1 Z3O       0.178000
     35 H2           5.2900   -19.5240    27.3770 ha         1 Z3O       0.181000
@<TRIPOS>BOND
     1     1     3 ar  
     2     1    13 1   
     3     1    14 ar  
     4     2    15 ar  
     5     2    16 ar  
     6     2    18 1   
     7     3    11 1   
     8     3    16 ar  
     9     4     6 1   
    10     4    17 2   
    11     4    35 1   
    12     5     6 1   
    13     5    19 1   
    14     5    20 1   
    15     5    21 1   
    16     6     7 1   
    17     6    22 1   
    18     7     8 1   
    19     7    23 1   
    20     7    24 1   
    21     8     9 1   
    22     8    25 1   
    23     8    26 1   
    24     9    10 1   
    25     9    17 1   
    26    10    11 1   
    27    10    27 1   
    28    10    28 1   
    29    11    12 1   
    30    11    29 1   
    31    12    13 2   
    32    12    30 1   
    33    14    15 ar  
    34    14    31 1   
    35    15    32 1   
    36    16    33 1   
    37    17    34 1   
@<TRIPOS>SUBSTRUCTURE
     1 Z3O         1 TEMP              0 ****  ****    0 ROOT
