@<TRIPOS>MOLECULE
Z3O
   35    37     1     0     0
SMALL
abcg2


@<TRIPOS>ATOM
      1 C10          6.6210   -18.8070    32.1080 ca         1 Z3O       0.088400
      2 C13          8.8840   -19.4710    30.6890 ca         1 Z3O      -0.107000
      3 C15          7.2800   -17.8370    31.3500 ca         1 Z3O      -0.112300
      4 C17          5.2130   -18.3420    27.6020 c2         1 Z3O      -0.332200
      5 C01          3.1080   -18.7450    26.3090 c3         1 Z3O      -0.081100
      6 C02          3.7270   -18.5580    27.6900 c6         1 Z3O      -0.007500
      7 C03          3.0940   -17.3720    28.4190 c6         1 Z3O      -0.084400
      8 C04          3.8790   -17.0030    29.6710 c6         1 Z3O       0.221800
      9 N05          5.2470   -16.6780    29.3320 nh         1 Z3O      -0.693400
     10 C06          6.0280   -15.8760    30.2260 c3         1 Z3O       0.264800
     11 C07          6.5180   -16.5630    31.5200 c5         1 Z3O      -0.163700
     12 C08          5.4330   -17.0390    32.4440 c2         1 Z3O       0.401200
     13 N09          5.4980   -18.2740    32.7700 ne         1 Z3O      -0.527100
     14 C11          7.0750   -20.1140    32.1640 ca         1 Z3O      -0.063000
     15 C12          8.2180   -20.4360    31.4390 ca         1 Z3O      -0.110000
     16 C14          8.4190   -18.1580    30.6380 ca         1 Z3O      -0.086000
     17 C16          5.8540   -17.4500    28.3720 c2         1 Z3O       0.029000
     18 H1           9.7740   -19.7450    30.1370 ha         1 Z3O       0.113000
     19 H3           3.5490   -19.5970    25.7900 hc         1 Z3O       0.031033
     20 H4           2.0330   -18.9220    26.3790 hc         1 Z3O       0.031033
     21 H5           3.2630   -17.8600    25.6890 hc         1 Z3O       0.031033
     22 H6           3.5160   -19.4680    28.2680 hc         1 Z3O       0.048700
     23 H7           3.0620   -16.5070    27.7490 hc         1 Z3O       0.046200
     24 H8           2.0630   -17.6000    28.6980 hc         1 Z3O       0.046200
     25 H9           3.4270   -16.1400    30.1650 h1         1 Z3O       0.036200
     26 H10          3.8300   -17.8410    30.3780 h1         1 Z3O       0.036200
     27 H11          6.9070   -15.5110    29.6910 h1         1 Z3O       0.050700
     28 H12          5.4500   -14.9930    30.5130 h1         1 Z3O       0.050700
     29 H13          7.1170   -15.8130    32.0540 hc         1 Z3O       0.089700
     30 H14          4.6490   -16.3930    32.8260 h4         1 Z3O       0.035800
     31 H15          6.5580   -20.8600    32.7550 ha         1 Z3O       0.130000
     32 H16          8.5970   -21.4490    31.4620 ha         1 Z3O       0.115000
     33 H17          8.9430   -17.4150    30.0500 ha         1 Z3O       0.113000
     34 H18          6.9150   -17.2740    28.2440 h4         1 Z3O       0.178000
     35 H2           5.7830   -18.8870    26.8590 ha         1 Z3O       0.181000
@<TRIPOS>BOND
     1     1     3 ar  
     2     1    13 1   
     3     1    14 ar  
     4     2    15 ar  
     5     2    16 ar  
     6     2    18 1   
     7     3    11 1   
     8     3    16 ar  
     9     4     6 1   
    10     4    17 2   
    11     4    35 1   
    12     5     6 1   
    13     5    19 1   
    14     5    20 1   
    15     5    21 1   
    16     6     7 1   
    17     6    22 1   
    18     7     8 1   
    19     7    23 1   
    20     7    24 1   
    21     8     9 1   
    22     8    25 1   
    23     8    26 1   
    24     9    10 1   
    25     9    17 1   
    26    10    11 1   
    27    10    27 1   
    28    10    28 1   
    29    11    12 1   
    30    11    29 1   
    31    12    13 2   
    32    12    30 1   
    33    14    15 ar  
    34    14    31 1   
    35    15    32 1   
    36    16    33 1   
    37    17    34 1   
@<TRIPOS>SUBSTRUCTURE
     1 Z3O         1 TEMP              0 ****  ****    0 ROOT
