@<TRIPOS>MOLECULE
Z3P
   29    28     1     0     0
SMALL
bcc


@<TRIPOS>ATOM
      1 O01          3.9800     1.6730     1.5250 o          1 Z3P      -0.869300
      2 C02          4.1070     1.2150     0.3740 c          1 Z3P       0.931600
      3 O03          5.1800     1.0100    -0.2310 o          1 Z3P      -0.869300
      4 C04          2.8280     0.8720    -0.4160 c3         1 Z3P      -0.181733
      5 C05          1.5260     1.0270     0.3570 c3         1 Z3P      -0.231267
      6 P06          0.0650     0.6850    -0.6760 p5         1 Z3P       0.919900
      7 O07          0.0860     1.4380    -1.9880 o          1 Z3P      -0.818300
      8 C08          0.0160    -1.1200    -0.9230 c3         1 Z3P      -0.231267
      9 C09         -0.1820    -1.9460     0.3400 c3         1 Z3P      -0.181733
     10 C10         -0.1800    -3.4750     0.1310 c          1 Z3P       0.931600
     11 O11          0.0020    -3.9070    -1.0220 o          1 Z3P      -0.869300
     12 O12         -0.3630    -4.1550     1.1620 o          1 Z3P      -0.869300
     13 C13         -1.3680     1.1200     0.3590 c3         1 Z3P      -0.231267
     14 C14         -2.6940     0.8040    -0.3180 c3         1 Z3P      -0.181733
     15 C15         -3.9480     1.2980     0.4320 c          1 Z3P       0.931600
     16 O16         -3.7810     1.9570     1.4750 o          1 Z3P      -0.869300
     17 O17         -5.0410     0.9900    -0.0870 o          1 Z3P      -0.869300
     18 H041         2.8040     1.5100    -1.3050 hc         1 Z3P       0.027367
     19 H042         2.9300    -0.1490    -0.7970 hc         1 Z3P       0.027367
     20 H051         1.5060     0.3670     1.2290 hc         1 Z3P       0.065700
     21 H052         1.4250     2.0460     0.7390 hc         1 Z3P       0.065700
     22 H081        -0.7830    -1.3150    -1.6430 hc         1 Z3P       0.065700
     23 H082         0.9450    -1.4000    -1.4250 hc         1 Z3P       0.065700
     24 H091         0.5930    -1.7130     1.0770 hc         1 Z3P       0.027367
     25 H092        -1.1270    -1.6770     0.8220 hc         1 Z3P       0.027367
     26 H131        -1.2850     0.6100     1.3210 hc         1 Z3P       0.065700
     27 H132        -1.2870     2.1890     0.5680 hc         1 Z3P       0.065700
     28 H141        -2.7100     1.2320    -1.3260 hc         1 Z3P       0.027367
     29 H142        -2.7980    -0.2770    -0.4650 hc         1 Z3P       0.027367
@<TRIPOS>BOND
     1     1     2 1   
     2     2     3 1   
     3     2     4 1   
     4     4     5 1   
     5     4    18 1   
     6     4    19 1   
     7     5     6 1   
     8     5    20 1   
     9     5    21 1   
    10     6     7 2   
    11     6     8 1   
    12     6    13 1   
    13     8     9 1   
    14     8    22 1   
    15     8    23 1   
    16     9    10 1   
    17     9    24 1   
    18     9    25 1   
    19    10    11 1   
    20    10    12 1   
    21    13    14 1   
    22    13    26 1   
    23    13    27 1   
    24    14    15 1   
    25    14    28 1   
    26    14    29 1   
    27    15    16 1   
    28    15    17 1   
@<TRIPOS>SUBSTRUCTURE
     1 Z3P         1 TEMP              0 ****  ****    0 ROOT
