@<TRIPOS>MOLECULE
Z3P
   29    28     1     0     0
SMALL
No Charge or Current Charge


@<TRIPOS>ATOM
      1 O01          4.5280     2.2900     0.4170 o          1 Z3P      -0.764000
      2 C02          4.0790     1.1590     0.5280 c          1 Z3P       0.721000
      3 O03          4.4870     0.3510     1.3480 o          1 Z3P      -0.764000
      4 C04          2.8860     0.7540    -0.3710 c3         1 Z3P      -0.181733
      5 C05          1.5090     1.1010     0.2850 c3         1 Z3P      -0.389067
      6 P06          0.0040     0.7570    -0.7300 p5         1 Z3P       1.164000
      7 O07         -0.0230     1.5530    -1.9930 o          1 Z3P      -0.589000
      8 C08         -0.0310    -1.0660    -1.0510 c3         1 Z3P      -0.389067
      9 C09         -0.0070    -2.0250     0.1850 c3         1 Z3P      -0.181733
     10 C10         -0.0400    -3.5150    -0.2360 c          1 Z3P       0.721000
     11 O11          1.0220    -4.0790    -0.4520 o          1 Z3P      -0.764000
     12 O12         -1.1280    -4.0500    -0.3870 o          1 Z3P      -0.764000
     13 C13         -1.4270     1.1420     0.3740 c3         1 Z3P      -0.389067
     14 C14         -2.8500     0.8330    -0.1980 c3         1 Z3P      -0.181733
     15 C15         -3.9750     1.2700     0.7720 c          1 Z3P       0.721000
     16 O16         -4.3980     2.4140     0.6870 o          1 Z3P      -0.764000
     17 O17         -4.3550     0.4730     1.6150 o          1 Z3P      -0.764000
     18 H041         2.9190     1.3210    -1.3100 hc         1 Z3P       0.027367
     19 H042         2.8820    -0.3330    -0.5170 hc         1 Z3P       0.027367
     20 H051         1.3930     0.5560     1.2280 hc         1 Z3P       0.065700
     21 H052         1.4700     2.1700     0.5200 hc         1 Z3P       0.065700
     22 H081        -0.9330    -1.2490    -1.6450 hc         1 Z3P       0.065700
     23 H082         0.8280    -1.2730    -1.6980 hc         1 Z3P       0.065700
     24 H091         0.9300    -1.8110     0.7130 hc         1 Z3P       0.027367
     25 H092        -0.9040    -1.7860     0.7680 hc         1 Z3P       0.027367
     26 H131        -1.2690     0.5920     1.3080 hc         1 Z3P       0.065700
     27 H132        -1.3440     2.2090     0.6050 hc         1 Z3P       0.065700
     28 H141        -2.9230     1.4020    -1.1330 hc         1 Z3P       0.027367
     29 H142        -2.8850    -0.2530    -0.3430 hc         1 Z3P       0.027367
@<TRIPOS>BOND
     1     1     2 1   
     2     2     3 1   
     3     2     4 1   
     4     4     5 1   
     5     4    18 1   
     6     4    19 1   
     7     5     6 1   
     8     5    20 1   
     9     5    21 1   
    10     6     7 2   
    11     6     8 1   
    12     6    13 1   
    13     8     9 1   
    14     8    22 1   
    15     8    23 1   
    16     9    10 1   
    17     9    24 1   
    18     9    25 1   
    19    10    11 1   
    20    10    12 1   
    21    13    14 1   
    22    13    26 1   
    23    13    27 1   
    24    14    15 1   
    25    14    28 1   
    26    14    29 1   
    27    15    16 1   
    28    15    17 1   
@<TRIPOS>SUBSTRUCTURE
     1 Z3P         1 TEMP              0 ****  ****    0 ROOT
