@<TRIPOS>MOLECULE
Z3Q
   38    38     1     0     0
SMALL
bcc


@<TRIPOS>ATOM
      1 C1          -7.4980    -6.4060    53.1040 c6         1 Z3Q       0.327900
      2 C11         -7.2230    -7.0450    55.3600 c3         1 Z3Q       0.123400
      3 C12         -7.0210    -8.3210    56.1480 c3         1 Z3Q       0.151800
      4 C2          -7.6290    -7.0540    51.7220 c6         1 Z3Q       0.100700
      5 C7          -6.6510    -9.3620    51.6160 c          1 Z3Q       0.689100
      6 C8          -8.0070    -9.9700    51.8700 c3         1 Z3Q      -0.181100
      7 C3          -7.5830    -5.9640    50.6560 c6         1 Z3Q       0.139100
      8 C4          -8.5850    -4.8530    50.9630 c6         1 Z3Q       0.074100
      9 C5          -8.3900    -4.3510    52.3980 c6         1 Z3Q       0.131100
     10 C6          -9.4270    -3.3220    52.7920 c3         1 Z3Q       0.147400
     11 N1A         -8.2400    -9.1330    56.2470 n2         1 Z3Q      -0.420200
     12 N1B         -9.0710    -8.7630    57.0550 n1         1 Z3Q       0.227000
     13 N1C         -9.8960    -8.5070    57.7750 n1         1 Z3Q      -0.080000
     14 N2          -6.5820    -8.0170    51.5020 ns         1 Z3Q      -0.566900
     15 O1          -7.6430    -7.3860    54.0560 os         1 Z3Q      -0.381600
     16 O7          -5.6490   -10.0520    51.4950 o          1 Z3Q      -0.608100
     17 O3          -7.8300    -6.5610    49.4130 oh         1 Z3Q      -0.579800
     18 O4          -8.3610    -3.8320    50.0160 oh         1 Z3Q      -0.599800
     19 O5          -8.5000    -5.4440    53.2860 os         1 Z3Q      -0.421600
     20 O6          -9.1250    -2.8390    54.0790 oh         1 Z3Q      -0.584800
     21 H1          -6.5040    -5.9230    53.1840 h2         1 Z3Q       0.023700
     22 H111        -6.2690    -6.5030    55.3360 h1         1 Z3Q       0.039700
     23 H112        -7.9540    -6.3980    55.8570 h1         1 Z3Q       0.039700
     24 H121        -6.2830    -8.9510    55.6540 h1         1 Z3Q       0.071700
     25 H122        -6.6310    -8.0690    57.1380 h1         1 Z3Q       0.071700
     26 H2          -8.6010    -7.5520    51.6720 h1         1 Z3Q       0.096700
     27 H82         -8.4230    -9.6380    52.8210 hc         1 Z3Q       0.066367
     28 H83         -8.7200    -9.7000    51.0900 hc         1 Z3Q       0.066367
     29 H81         -7.9150   -11.0530    51.8910 hc         1 Z3Q       0.066367
     30 HN2         -5.6530    -7.6480    51.3500 hn         1 Z3Q       0.307500
     31 H3          -6.5770    -5.5100    50.6820 h1         1 Z3Q       0.042700
     32 HO3         -7.7600    -5.8780    48.7380 ho         1 Z3Q       0.421000
     33 H4          -9.6000    -5.2660    50.8710 h1         1 Z3Q       0.059700
     34 HO4         -9.1950    -3.4010    49.8100 ho         1 Z3Q       0.414000
     35 H5          -7.3880    -3.8970    52.4760 h1         1 Z3Q       0.061700
     36 H62        -10.4220    -3.7880    52.7510 h1         1 Z3Q       0.027700
     37 H61         -9.4180    -2.5170    52.0480 h1         1 Z3Q       0.027700
     38 HO6         -9.7830    -2.1780    54.3110 ho         1 Z3Q       0.408000
@<TRIPOS>BOND
     1     1     4 1   
     2     1    15 1   
     3     1    19 1   
     4     1    21 1   
     5     2     3 1   
     6     2    15 1   
     7     2    22 1   
     8     2    23 1   
     9     3    11 1   
    10     3    24 1   
    11     3    25 1   
    12     4     7 1   
    13     4    14 1   
    14     4    26 1   
    15     5     6 1   
    16     5    14 1   
    17     5    16 2   
    18     6    27 1   
    19     6    28 1   
    20     6    29 1   
    21     7     8 1   
    22     7    17 1   
    23     7    31 1   
    24     8     9 1   
    25     8    18 1   
    26     8    33 1   
    27     9    10 1   
    28     9    19 1   
    29     9    35 1   
    30    10    20 1   
    31    10    36 1   
    32    10    37 1   
    33    11    12 1   
    34    12    13 3   
    35    14    30 1   
    36    17    32 1   
    37    18    34 1   
    38    20    38 1   
@<TRIPOS>SUBSTRUCTURE
     1 Z3Q         1 TEMP              0 ****  ****    0 ROOT
