@<TRIPOS>MOLECULE
Z3Q
   38    38     1     0     0
SMALL
No Charge or Current Charge


@<TRIPOS>ATOM
      1 C1          -7.3400    -6.4930    53.0090 c6         1 Z3Q       0.374300
      2 C11         -7.0750    -7.1080    55.3600 c3         1 Z3Q       0.146600
      3 C12         -7.1380    -8.3480    56.2870 c3         1 Z3Q       0.151800
      4 C2          -7.5640    -7.1050    51.5880 c6         1 Z3Q       0.100700
      5 C7          -6.5480    -9.4600    51.5640 c          1 Z3Q       0.622100
      6 C8          -7.8860   -10.1090    51.9200 c3         1 Z3Q      -0.181100
      7 C3          -7.5530    -5.9290    50.5650 c6         1 Z3Q       0.162300
      8 C4          -8.6090    -4.8450    50.9410 c6         1 Z3Q       0.097300
      9 C5          -8.3560    -4.3750    52.4100 c6         1 Z3Q       0.154300
     10 C6          -9.4280    -3.3550    52.9220 c3         1 Z3Q       0.170600
     11 N1A         -8.4860    -8.9490    56.3250 n2         1 Z3Q      -0.420200
     12 N1B         -9.3270    -8.3790    57.0380 n1         1 Z3Q       0.227000
     13 N1C        -10.1630    -7.8190    57.5700 n1         1 Z3Q      -0.080000
     14 N2          -6.5340    -8.1220    51.2440 ns         1 Z3Q      -0.499900
     15 O1          -7.3860    -7.5160    54.0150 os         1 Z3Q      -0.428000
     16 O7          -5.5200   -10.1140    51.4800 o          1 Z3Q      -0.608100
     17 O3          -7.8030    -6.3910    49.2280 oh         1 Z3Q      -0.642000
     18 O4          -8.5420    -3.7530    49.9950 oh         1 Z3Q      -0.722000
     19 O5          -8.3710    -5.5280    53.2900 os         1 Z3Q      -0.468000
     20 O6          -9.2310    -2.9610    54.2940 oh         1 Z3Q      -0.707000
     21 H1          -6.3570    -6.0010    53.0430 h2         1 Z3Q       0.023700
     22 H111        -6.0660    -6.6790    55.4070 h1         1 Z3Q       0.039700
     23 H112        -7.7850    -6.3490    55.7150 h1         1 Z3Q       0.039700
     24 H121        -6.4070    -9.0840    55.9290 h1         1 Z3Q       0.071700
     25 H122        -6.8190    -8.0460    57.2930 h1         1 Z3Q       0.071700
     26 H2          -8.5600    -7.5660    51.5670 h1         1 Z3Q       0.096700
     27 H82         -8.3050    -9.6280    52.8100 hc         1 Z3Q       0.066367
     28 H83         -8.6210    -9.8630    51.1460 hc         1 Z3Q       0.066367
     29 H81         -7.7990   -11.1920    52.0600 hc         1 Z3Q       0.066367
     30 HN2         -5.6430    -7.7820    50.9030 hn         1 Z3Q       0.307500
     31 H3          -6.5590    -5.4570    50.6030 h1         1 Z3Q       0.042700
     32 HO3         -8.0230    -5.5750    48.7220 ho         1 Z3Q       0.460000
     33 H4          -9.6050    -5.3130    50.9030 h1         1 Z3Q       0.059700
     34 HO4         -9.4180    -3.2980    49.9940 ho         1 Z3Q       0.513000
     35 H5          -7.3690    -3.8930    52.4750 h1         1 Z3Q       0.061700
     36 H62        -10.4200    -3.8120    52.8020 h1         1 Z3Q       0.027700
     37 H61         -9.3970    -2.4680    52.2750 h1         1 Z3Q       0.027700
     38 HO6         -9.9940    -2.3870    54.5410 ho         1 Z3Q       0.507000
@<TRIPOS>BOND
     1     1     4 1   
     2     1    15 1   
     3     1    19 1   
     4     1    21 1   
     5     2     3 1   
     6     2    15 1   
     7     2    22 1   
     8     2    23 1   
     9     3    11 1   
    10     3    24 1   
    11     3    25 1   
    12     4     7 1   
    13     4    14 1   
    14     4    26 1   
    15     5     6 1   
    16     5    14 1   
    17     5    16 2   
    18     6    27 1   
    19     6    28 1   
    20     6    29 1   
    21     7     8 1   
    22     7    17 1   
    23     7    31 1   
    24     8     9 1   
    25     8    18 1   
    26     8    33 1   
    27     9    10 1   
    28     9    19 1   
    29     9    35 1   
    30    10    20 1   
    31    10    36 1   
    32    10    37 1   
    33    11    12 1   
    34    12    13 3   
    35    14    30 1   
    36    17    32 1   
    37    18    34 1   
    38    20    38 1   
@<TRIPOS>SUBSTRUCTURE
     1 Z3Q         1 TEMP              0 ****  ****    0 ROOT
