@<TRIPOS>MOLECULE
Z3R
   26    28     1     0     0
SMALL
No Charge or Current Charge


@<TRIPOS>ATOM
      1 C1          -5.8130     0.6530    -0.0600 ca         1 Z3R      -0.110000
      2 C2          -5.8090    -0.7570    -0.0940 ca         1 Z3R      -0.098000
      3 C3          -4.5880    -1.4560    -0.0890 ca         1 Z3R      -0.072000
      4 C4          -3.3940    -0.7200    -0.0480 ca         1 Z3R      -0.183000
      5 C5          -3.3780     0.6630    -0.0130 ca         1 Z3R       0.096400
      6 C6          -4.5960     1.3650    -0.0190 ca         1 Z3R      -0.055000
      7 N7          -2.1330     1.2840     0.0250 nc         1 Z3R      -0.536100
      8 C8          -1.2130     0.3020     0.0190 cd         1 Z3R       0.465800
      9 S9          -1.7760    -1.3930    -0.0340 ss         1 Z3R       0.033800
     10 C10          0.2000     0.6100     0.0530 cd         1 Z3R      -0.172900
     11 C11          1.2410    -0.3630     0.0500 cd         1 Z3R       0.025000
     12 C12          2.4890     0.2110     0.0820 cc         1 Z3R      -0.503500
     13 S13          2.4120     1.9630     0.1480 ss         1 Z3R       0.381000
     14 C14          0.6530     1.9110     0.0960 cc         1 Z3R      -0.181000
     15 S15          4.0340    -0.6190     0.1180 sy         1 Z3R       1.193600
     16 O16          5.0860     0.2780     0.5920 o          1 Z3R      -0.529500
     17 O17          3.8380    -1.9790     0.6090 o          1 Z3R      -0.529500
     18 N18          4.2670    -0.7940    -1.4800 n8         1 Z3R      -1.009100
     19 H1          -6.7570     1.1940    -0.0640 ha         1 Z3R       0.119000
     20 H2          -6.7490    -1.3030    -0.1260 ha         1 Z3R       0.117000
     21 H6          -4.5980     2.4520     0.0080 ha         1 Z3R       0.132000
     22 H3          -4.5720    -2.5440    -0.1150 ha         1 Z3R       0.126000
     23 H11          1.0760    -1.4380     0.0270 ha         1 Z3R       0.153000
     24 H14          0.0980     2.8400     0.1080 h4         1 Z3R       0.173000
     25 H181         4.3520    -1.8060    -1.5410 hn         1 Z3R       0.481500
     26 H182         3.3300    -0.6050    -1.8250 hn         1 Z3R       0.481500
@<TRIPOS>BOND
     1     1     2 ar  
     2     1     6 ar  
     3     1    19 1   
     4     2     3 ar  
     5     2    20 1   
     6     3     4 ar  
     7     3    22 1   
     8     4     5 ar  
     9     4     9 1   
    10     5     6 ar  
    11     5     7 1   
    12     6    21 1   
    13     7     8 2   
    14     8     9 1   
    15     8    10 1   
    16    10    11 1   
    17    10    14 2   
    18    11    12 2   
    19    11    23 1   
    20    12    13 1   
    21    12    15 1   
    22    13    14 1   
    23    14    24 1   
    24    15    16 2   
    25    15    17 2   
    26    15    18 1   
    27    18    25 1   
    28    18    26 1   
@<TRIPOS>SUBSTRUCTURE
     1 Z3R         1 TEMP              0 ****  ****    0 ROOT
