@<TRIPOS>MOLECULE
Z3R
   26    28     1     0     0
SMALL
bcc


@<TRIPOS>ATOM
      1 C1          -5.8130     0.6360    -0.0320 ca         1 Z3R      -0.128000
      2 C2          -5.8180    -0.7640    -0.0670 ca         1 Z3R      -0.116000
      3 C3          -4.6350    -1.4820    -0.0670 ca         1 Z3R      -0.090000
      4 C4          -3.4440    -0.7680    -0.0320 ca         1 Z3R      -0.056100
      5 C5          -3.4220     0.6370     0.0020 ca         1 Z3R       0.096400
      6 C6          -4.6270     1.3430     0.0030 ca         1 Z3R      -0.073000
      7 N7          -2.1710     1.1960     0.0330 nc         1 Z3R      -0.536100
      8 C8          -1.2530     0.2940     0.0250 cd         1 Z3R       0.465800
      9 S9          -1.8200    -1.3600    -0.0220 ss         1 Z3R      -0.093100
     10 C10          0.1710     0.5890     0.0460 cd         1 Z3R      -0.172900
     11 C11          1.2070    -0.3830     0.0890 cd         1 Z3R       0.007000
     12 C12          2.4370     0.1960     0.1050 cc         1 Z3R      -0.358600
     13 S13          2.3620     1.9100     0.0770 ss         1 Z3R       0.091200
     14 C14          0.6670     1.8690     0.0340 cc         1 Z3R      -0.054100
     15 S15          3.9880    -0.6220     0.1310 sy         1 Z3R       1.335200
     16 O16          4.9480     0.3650     0.5880 o          1 Z3R      -0.600300
     17 O17          3.7990    -1.8760     0.8330 o          1 Z3R      -0.600300
     18 N18          4.3970    -1.0020    -1.4050 n8         1 Z3R      -0.898700
     19 H1          -6.7530     1.1710    -0.0320 ha         1 Z3R       0.137000
     20 H2          -6.7600    -1.2950    -0.0960 ha         1 Z3R       0.135000
     21 H6          -4.6190     2.4240     0.0300 ha         1 Z3R       0.150000
     22 H3          -4.6420    -2.5630    -0.0940 ha         1 Z3R       0.144000
     23 H11          1.0530    -1.4540     0.1130 ha         1 Z3R       0.171000
     24 H14          0.0990     2.7870     0.0120 h4         1 Z3R       0.191000
     25 H181         3.7990    -1.6970    -1.8380 hn         1 Z3R       0.426300
     26 H182         4.5490    -0.2030    -2.0100 hn         1 Z3R       0.426300
@<TRIPOS>BOND
     1     1     2 ar  
     2     1     6 ar  
     3     1    19 1   
     4     2     3 ar  
     5     2    20 1   
     6     3     4 ar  
     7     3    22 1   
     8     4     5 ar  
     9     4     9 1   
    10     5     6 ar  
    11     5     7 1   
    12     6    21 1   
    13     7     8 2   
    14     8     9 1   
    15     8    10 1   
    16    10    11 1   
    17    10    14 2   
    18    11    12 2   
    19    11    23 1   
    20    12    13 1   
    21    12    15 1   
    22    13    14 1   
    23    14    24 1   
    24    15    16 2   
    25    15    17 2   
    26    15    18 1   
    27    18    25 1   
    28    18    26 1   
@<TRIPOS>SUBSTRUCTURE
     1 Z3R         1 TEMP              0 ****  ****    0 ROOT
