@<TRIPOS>MOLECULE
Z3U
   22    22     1     0     0
SMALL
abcg2


@<TRIPOS>ATOM
      1 C1          38.7120    19.8700    -6.4070 c6         1 Z3U       0.398300
      2 C2          39.7000    20.0060    -7.5510 c6         1 Z3U      -0.103400
      3 C3          41.0860    20.3660    -7.0410 c6         1 Z3U       0.182300
      4 C4          40.9950    21.5720    -6.1070 c6         1 Z3U       0.097300
      5 C5          39.9460    21.3310    -5.0150 c6         1 Z3U       0.157300
      6 C6          39.7520    22.5270    -4.1060 c3         1 Z3U      -0.094100
      7 O1          37.4450    19.6900    -6.9310 oh         1 Z3U      -0.642000
      8 O3          41.6130    19.2380    -6.3740 oh         1 Z3U      -0.667000
      9 O4          42.2840    21.7810    -5.5770 oh         1 Z3U      -0.730000
     10 O5          38.7020    21.0510    -5.6300 os         1 Z3U      -0.497000
     11 H1          38.9970    19.0260    -5.7580 h2         1 Z3U       0.033700
     12 HO1         36.8550    19.3880    -6.2320 ho         1 Z3U       0.457000
     13 H21         39.7450    19.0780    -8.1270 hc         1 Z3U       0.073200
     14 H22         39.3550    20.7920    -8.2290 hc         1 Z3U       0.073200
     15 H3          41.7220    20.6390    -7.8950 h1         1 Z3U       0.047700
     16 HO3         42.4570    19.4880    -5.9830 ho         1 Z3U       0.462000
     17 H4          40.6680    22.4360    -6.7070 h1         1 Z3U       0.050700
     18 HO4         42.2970    22.6080    -5.0850 ho         1 Z3U       0.514000
     19 H5          40.2670    20.4710    -4.4080 h1         1 Z3U       0.051700
     20 H62         40.6630    22.7530    -3.5520 hc         1 Z3U       0.045367
     21 H61         38.9760    22.3270    -3.3670 hc         1 Z3U       0.045367
     22 H63         39.4650    23.4160    -4.6710 hc         1 Z3U       0.045367
@<TRIPOS>BOND
     1     1     2 1   
     2     1     7 1   
     3     1    10 1   
     4     1    11 1   
     5     2     3 1   
     6     2    13 1   
     7     2    14 1   
     8     3     4 1   
     9     3     8 1   
    10     3    15 1   
    11     4     5 1   
    12     4     9 1   
    13     4    17 1   
    14     5     6 1   
    15     5    10 1   
    16     5    19 1   
    17     6    20 1   
    18     6    21 1   
    19     6    22 1   
    20     7    12 1   
    21     8    16 1   
    22     9    18 1   
@<TRIPOS>SUBSTRUCTURE
     1 Z3U         1 TEMP              0 ****  ****    0 ROOT
