@<TRIPOS>MOLECULE
Z3U
   22    22     1     0     0
SMALL
No Charge or Current Charge


@<TRIPOS>ATOM
      1 C1          38.7410    19.7230    -6.3830 c6         1 Z3U       0.398300
      2 C2          39.6880    19.9320    -7.5830 c6         1 Z3U      -0.103400
      3 C3          41.0970    20.3520    -7.1050 c6         1 Z3U       0.182300
      4 C4          41.0210    21.5470    -6.1030 c6         1 Z3U       0.097300
      5 C5          39.9580    21.2560    -4.9900 c6         1 Z3U       0.157300
      6 C6          39.6910    22.4740    -4.0710 c3         1 Z3U      -0.094100
      7 O1          37.4170    19.5360    -6.8210 oh         1 Z3U      -0.642000
      8 O3          41.7660    19.2540    -6.4750 oh         1 Z3U      -0.667000
      9 O4          42.3320    21.7930    -5.5420 oh         1 Z3U      -0.730000
     10 O5          38.6910    20.9110    -5.5920 os         1 Z3U      -0.497000
     11 H1          39.0670    18.8700    -5.7690 h2         1 Z3U       0.033700
     12 HO1         36.9240    20.2040    -6.3000 ho         1 Z3U       0.457000
     13 H21         39.7460    19.0140    -8.1820 hc         1 Z3U       0.073200
     14 H22         39.2790    20.7110    -8.2410 hc         1 Z3U       0.073200
     15 H3          41.6770    20.6750    -7.9820 h1         1 Z3U       0.047700
     16 HO3         42.4310    19.6990    -5.8980 ho         1 Z3U       0.462000
     17 H4          40.6860    22.4300    -6.6680 h1         1 Z3U       0.050700
     18 HO4         42.3300    22.7130    -5.1840 ho         1 Z3U       0.514000
     19 H5          40.2930    20.4140    -4.3650 h1         1 Z3U       0.051700
     20 H62         40.5890    22.7500    -3.5050 hc         1 Z3U       0.045367
     21 H61         38.9030    22.2480    -3.3420 hc         1 Z3U       0.045367
     22 H63         39.3740    23.3490    -4.6500 hc         1 Z3U       0.045367
@<TRIPOS>BOND
     1     1     2 1   
     2     1     7 1   
     3     1    10 1   
     4     1    11 1   
     5     2     3 1   
     6     2    13 1   
     7     2    14 1   
     8     3     4 1   
     9     3     8 1   
    10     3    15 1   
    11     4     5 1   
    12     4     9 1   
    13     4    17 1   
    14     5     6 1   
    15     5    10 1   
    16     5    19 1   
    17     6    20 1   
    18     6    21 1   
    19     6    22 1   
    20     7    12 1   
    21     8    16 1   
    22     9    18 1   
@<TRIPOS>SUBSTRUCTURE
     1 Z3U         1 TEMP              0 ****  ****    0 ROOT
