@<TRIPOS>MOLECULE
Z3V
   17    16     1     0     0
SMALL
abcg2


@<TRIPOS>ATOM
      1 C1         140.7710   120.0350   163.6580 c3         1 Z3V      -0.093100
      2 C2         141.6750   120.8080   162.7110 c3         1 Z3V       0.169800
      3 C3         141.2120   119.5670   160.6470 c3         1 Z3V       0.175800
      4 C4         139.8160   118.9670   160.5130 c3         1 Z3V       0.089600
      5 N1         141.1710   120.8390   161.3480 n7         1 Z3V      -0.884400
      6 S1         139.9490   117.3520   159.6710 sh         1 Z3V      -0.476800
      7 H1         141.1560   120.0910   164.6770 hc         1 Z3V       0.037367
      8 H2         139.7590   120.4410   163.6530 hc         1 Z3V       0.037367
      9 H3         140.7130   118.9780   163.3920 hc         1 Z3V       0.037367
     10 H4         142.6900   120.3850   162.7680 h1         1 Z3V       0.026700
     11 H5         141.7500   121.8410   163.0550 h1         1 Z3V       0.026700
     12 H6         141.8760   118.8500   161.1490 h1         1 Z3V       0.042700
     13 H7         141.6230   119.7140   159.6460 h1         1 Z3V       0.042700
     14 H8         139.1830   119.6320   159.9270 h1         1 Z3V       0.065200
     15 H9         139.3580   118.8290   161.4910 h1         1 Z3V       0.065200
     16 H10        141.6890   121.5290   160.8240 hn         1 Z3V       0.419000
     17 H12        138.6430   117.0700   159.6190 hs         1 Z3V       0.217800
@<TRIPOS>BOND
     1     1     2 1   
     2     1     7 1   
     3     1     8 1   
     4     1     9 1   
     5     2     5 1   
     6     2    10 1   
     7     2    11 1   
     8     3     4 1   
     9     3     5 1   
    10     3    12 1   
    11     3    13 1   
    12     4     6 1   
    13     4    14 1   
    14     4    15 1   
    15     5    16 1   
    16     6    17 1   
@<TRIPOS>SUBSTRUCTURE
     1 Z3V         1 TEMP              0 ****  ****    0 ROOT
