@<TRIPOS>MOLECULE
Z3V
   17    16     1     0     0
SMALL
No Charge or Current Charge


@<TRIPOS>ATOM
      1 C1         140.7160   120.0400   163.6490 c3         1 Z3V      -0.093100
      2 C2         141.6760   120.8340   162.7440 c3         1 Z3V       0.169800
      3 C3         141.2570   119.5860   160.5840 c3         1 Z3V       0.175800
      4 C4         139.8630   118.9140   160.5290 c3         1 Z3V       0.089600
      5 N1         141.2320   120.8710   161.3310 n7         1 Z3V      -0.884400
      6 S1         139.8320   117.3310   159.5560 sh         1 Z3V      -0.476800
      7 H1         141.0030   120.1650   164.6990 hc         1 Z3V       0.037367
      8 H2         139.6850   120.3950   163.5330 hc         1 Z3V       0.037367
      9 H3         140.7520   118.9690   163.4210 hc         1 Z3V       0.037367
     10 H4         142.6850   120.4050   162.8220 h1         1 Z3V       0.026700
     11 H5         141.7310   121.8610   163.1300 h1         1 Z3V       0.026700
     12 H6         141.9890   118.8890   161.0150 h1         1 Z3V       0.042700
     13 H7         141.5660   119.7750   159.5470 h1         1 Z3V       0.042700
     14 H8         139.1490   119.6110   160.0720 h1         1 Z3V       0.065200
     15 H9         139.5120   118.6940   161.5440 h1         1 Z3V       0.065200
     16 H10        141.8740   121.5110   160.8440 hn         1 Z3V       0.419000
     17 H12        138.5100   117.0770   159.7290 hs         1 Z3V       0.217800
@<TRIPOS>BOND
     1     1     2 1   
     2     1     7 1   
     3     1     8 1   
     4     1     9 1   
     5     2     5 1   
     6     2    10 1   
     7     2    11 1   
     8     3     4 1   
     9     3     5 1   
    10     3    12 1   
    11     3    13 1   
    12     4     6 1   
    13     4    14 1   
    14     4    15 1   
    15     5    16 1   
    16     6    17 1   
@<TRIPOS>SUBSTRUCTURE
     1 Z3V         1 TEMP              0 ****  ****    0 ROOT
