@<TRIPOS>MOLECULE
Z41
  108   107     1     0     0
SMALL
No Charge or Current Charge


@<TRIPOS>ATOM
      1 C1          10.2370    -4.9320    28.3390 c3         1 Z41      -0.088100
      2 C2           9.3250    -3.7810    28.8080 c3         1 Z41      -0.076400
      3 C3           8.3420    -3.3040    27.7170 c3         1 Z41      -0.076400
      4 C4           7.4390    -2.1390    28.1870 c3         1 Z41      -0.072400
      5 C5           6.4780    -1.5920    27.1040 c3         1 Z41      -0.073400
      6 C6           5.3800    -2.5870    26.6600 c3         1 Z41      -0.076400
      7 C7           4.3730    -1.9680    25.6600 c3         1 Z41      -0.073400
      8 C8           3.3150    -2.9590    25.1180 c3         1 Z41      -0.072400
      9 C9           2.3370    -3.5010    26.1870 c3         1 Z41      -0.075400
     10 C10          1.2630    -4.4460    25.6040 c3         1 Z41      -0.077400
     11 C11          0.3240    -5.0220    26.6850 c3         1 Z41      -0.075400
     12 C12         -0.7090    -6.0260    26.1210 c3         1 Z41      -0.075400
     13 C13         -1.6830    -6.6060    27.1750 c3         1 Z41      -0.074400
     14 C14         -0.9960    -7.4580    28.2710 c3         1 Z41      -0.070400
     15 C15         -1.9930    -8.1150    29.2530 c3         1 Z41      -0.136400
     16 C16         -1.2540    -8.7380    30.4400 c          1 Z41       0.596100
     17 O1          -0.8210    -8.0850    31.3810 o          1 Z41      -0.487000
     18 O2          -1.1740   -10.1030    30.3450 os         1 Z41      -0.439100
     19 C17         -0.4410   -10.8030    31.3730 c3         1 Z41       0.152600
     20 C18         -0.6440   -12.3240    31.1910 c3         1 Z41       0.166300
     21 O3          -0.0440   -12.7180    29.9290 os         1 Z41      -0.453100
     22 C19         -0.8200   -13.3980    29.0040 c          1 Z41       0.607100
     23 O4          -1.9910   -13.7330    29.1710 o          1 Z41      -0.477000
     24 C20          0.0180   -13.8530    27.8030 c3         1 Z41      -0.135400
     25 C21         -0.4760   -13.2540    26.4640 c3         1 Z41      -0.064400
     26 C22         -0.3830   -11.7140    26.3770 c3         1 Z41      -0.078400
     27 C23         -0.9070   -11.1680    25.0300 c3         1 Z41      -0.075400
     28 C24         -0.8000    -9.6320    24.9160 c3         1 Z41      -0.073400
     29 C25         -1.3280    -9.0460    23.5830 c3         1 Z41      -0.071400
     30 C26         -2.8650    -9.1170    23.4210 c3         1 Z41      -0.077400
     31 C27         -3.3620    -8.5060    22.0920 c3         1 Z41      -0.076400
     32 C28         -4.9050    -8.5340    21.9540 c3         1 Z41      -0.074400
     33 C29         -5.4350    -8.0400    20.5860 c3         1 Z41      -0.073400
     34 C30         -5.1280    -6.5510    20.2830 c3         1 Z41      -0.073400
     35 C31         -5.7960    -6.0120    18.9960 c3         1 Z41      -0.074400
     36 C32         -5.2880    -6.6670    17.6900 c3         1 Z41      -0.076400
     37 C33         -5.9180    -6.0460    16.4240 c3         1 Z41      -0.076400
     38 C34         -5.4120    -6.6920    15.1200 c3         1 Z41      -0.088100
     39 C35          0.0330   -13.1380    32.3280 c3         1 Z41       0.153600
     40 O5          -0.2310   -14.5470    32.2020 oh         1 Z41      -0.650000
     41 H5O          0.2500   -14.9970    32.9330 ho         1 Z41       0.449000
     42 H11         10.9050    -5.2450    29.1510 hc         1 Z41       0.031367
     43 H12          9.6400    -5.8000    28.0310 hc         1 Z41       0.031367
     44 H13         10.8550    -4.6170    27.4880 hc         1 Z41       0.031367
     45 H21          8.7590    -4.1120    29.6880 hc         1 Z41       0.035700
     46 H22          9.9520    -2.9390    29.1270 hc         1 Z41       0.035700
     47 H31          8.9100    -2.9860    26.8340 hc         1 Z41       0.037700
     48 H32          7.7190    -4.1530    27.4100 hc         1 Z41       0.037700
     49 H41          6.8540    -2.4600    29.0580 hc         1 Z41       0.036700
     50 H42          8.0790    -1.3150    28.5280 hc         1 Z41       0.036700
     51 H51          5.9950    -0.6890    27.4980 hc         1 Z41       0.036200
     52 H52          7.0610    -1.2780    26.2290 hc         1 Z41       0.036200
     53 H61          5.8440    -3.4650    26.1950 hc         1 Z41       0.038700
     54 H62          4.8440    -2.9380    27.5490 hc         1 Z41       0.038700
     55 H71          3.8630    -1.1210    26.1360 hc         1 Z41       0.036700
     56 H72          4.9300    -1.5580    24.8080 hc         1 Z41       0.036700
     57 H81          2.7350    -2.4520    24.3360 hc         1 Z41       0.037200
     58 H82          3.8260    -3.8000    24.6330 hc         1 Z41       0.037200
     59 H91          2.9000    -4.0450    26.9550 hc         1 Z41       0.038200
     60 H92          1.8440    -2.6580    26.6870 hc         1 Z41       0.038200
     61 H101         0.6680    -3.9050    24.8570 hc         1 Z41       0.036700
     62 H102         1.7590    -5.2730    25.0810 hc         1 Z41       0.036700
     63 H111         0.9390    -5.5160    27.4460 hc         1 Z41       0.038200
     64 H112        -0.2050    -4.1990    27.1830 hc         1 Z41       0.038200
     65 H121        -1.2980    -5.5300    25.3390 hc         1 Z41       0.040700
     66 H122        -0.1740    -6.8500    25.6320 hc         1 Z41       0.040700
     67 H131        -2.2330    -5.7820    27.6470 hc         1 Z41       0.039700
     68 H132        -2.4290    -7.2230    26.6580 hc         1 Z41       0.039700
     69 H141        -0.3800    -8.2380    27.8060 hc         1 Z41       0.052700
     70 H142        -0.3160    -6.8170    28.8460 hc         1 Z41       0.052700
     71 H151        -2.6790    -7.3490    29.6320 hc         1 Z41       0.072700
     72 H152        -2.5490    -8.8910    28.7130 hc         1 Z41       0.072700
     73 H171         0.6300   -10.5630    31.3240 h1         1 Z41       0.058700
     74 H172        -0.8100   -10.5210    32.3690 h1         1 Z41       0.058700
     75 H181        -1.7250   -12.5170    31.2300 h1         1 Z41       0.096700
     76 H201         1.0670   -13.5730    27.9550 hc         1 Z41       0.070700
     77 H202        -0.0560   -14.9440    27.7360 hc         1 Z41       0.070700
     78 H211         0.1150   -13.6900    25.6480 hc         1 Z41       0.049700
     79 H212        -1.5160   -13.5630    26.2950 hc         1 Z41       0.049700
     80 H221        -0.9590   -11.2610    27.1950 hc         1 Z41       0.042200
     81 H222         0.6620   -11.4070    26.5130 hc         1 Z41       0.042200
     82 H231        -0.3450   -11.6290    24.2080 hc         1 Z41       0.039200
     83 H232        -1.9540   -11.4720    24.9120 hc         1 Z41       0.039200
     84 H241        -1.3470    -9.1760    25.7480 hc         1 Z41       0.037200
     85 H242         0.2520    -9.3430    25.0320 hc         1 Z41       0.037200
     86 H251        -1.0200    -7.9950    23.5220 hc         1 Z41       0.036700
     87 H252        -0.8440    -9.5630    22.7440 hc         1 Z41       0.036700
     88 H261        -3.1950   -10.1620    23.4720 hc         1 Z41       0.038700
     89 H262        -3.3400    -8.5890    24.2580 hc         1 Z41       0.038700
     90 H271        -3.0080    -7.4700    22.0250 hc         1 Z41       0.036700
     91 H272        -2.9130    -9.0560    21.2540 hc         1 Z41       0.036700
     92 H281        -5.2560    -9.5640    22.1050 hc         1 Z41       0.037200
     93 H282        -5.3520    -7.9300    22.7540 hc         1 Z41       0.037200
     94 H291        -5.0130    -8.6740    19.7960 hc         1 Z41       0.037700
     95 H292        -6.5230    -8.1890    20.5620 hc         1 Z41       0.037700
     96 H301        -5.4670    -5.9400    21.1300 hc         1 Z41       0.037700
     97 H302        -4.0430    -6.4040    20.2040 hc         1 Z41       0.037700
     98 H311        -6.8840    -6.1440    19.0700 hc         1 Z41       0.036200
     99 H312        -5.6150    -4.9300    18.9400 hc         1 Z41       0.036200
    100 H321        -4.1960    -6.5660    17.6370 hc         1 Z41       0.037700
    101 H322        -5.5110    -7.7420    17.7040 hc         1 Z41       0.037700
    102 H331        -7.0110    -6.1500    16.4720 hc         1 Z41       0.035700
    103 H332        -5.6990    -4.9710    16.3970 hc         1 Z41       0.035700
    104 H341        -5.8890    -6.2220    14.2520 hc         1 Z41       0.031367
    105 H342        -4.3260    -6.5710    15.0230 hc         1 Z41       0.031367
    106 H343        -5.6450    -7.7650    15.1030 hc         1 Z41       0.031367
    107 H351         1.1160   -12.9500    32.3010 h1         1 Z41       0.029700
    108 H352        -0.3400   -12.7740    33.2950 h1         1 Z41       0.029700
@<TRIPOS>BOND
     1     1     2 1   
     2     1    42 1   
     3     1    43 1   
     4     1    44 1   
     5     2     3 1   
     6     2    45 1   
     7     2    46 1   
     8     3     4 1   
     9     3    47 1   
    10     3    48 1   
    11     4     5 1   
    12     4    49 1   
    13     4    50 1   
    14     5     6 1   
    15     5    51 1   
    16     5    52 1   
    17     6     7 1   
    18     6    53 1   
    19     6    54 1   
    20     7     8 1   
    21     7    55 1   
    22     7    56 1   
    23     8     9 1   
    24     8    57 1   
    25     8    58 1   
    26     9    10 1   
    27     9    59 1   
    28     9    60 1   
    29    10    11 1   
    30    10    61 1   
    31    10    62 1   
    32    11    12 1   
    33    11    63 1   
    34    11    64 1   
    35    12    13 1   
    36    12    65 1   
    37    12    66 1   
    38    13    14 1   
    39    13    67 1   
    40    13    68 1   
    41    14    15 1   
    42    14    69 1   
    43    14    70 1   
    44    15    16 1   
    45    15    71 1   
    46    15    72 1   
    47    16    17 2   
    48    16    18 1   
    49    18    19 1   
    50    19    20 1   
    51    19    73 1   
    52    19    74 1   
    53    20    21 1   
    54    20    39 1   
    55    20    75 1   
    56    21    22 1   
    57    22    23 2   
    58    22    24 1   
    59    24    25 1   
    60    24    76 1   
    61    24    77 1   
    62    25    26 1   
    63    25    78 1   
    64    25    79 1   
    65    26    27 1   
    66    26    80 1   
    67    26    81 1   
    68    27    28 1   
    69    27    82 1   
    70    27    83 1   
    71    28    29 1   
    72    28    84 1   
    73    28    85 1   
    74    29    30 1   
    75    29    86 1   
    76    29    87 1   
    77    30    31 1   
    78    30    88 1   
    79    30    89 1   
    80    31    32 1   
    81    31    90 1   
    82    31    91 1   
    83    32    33 1   
    84    32    92 1   
    85    32    93 1   
    86    33    34 1   
    87    33    94 1   
    88    33    95 1   
    89    34    35 1   
    90    34    96 1   
    91    34    97 1   
    92    35    36 1   
    93    35    98 1   
    94    35    99 1   
    95    36    37 1   
    96    36   100 1   
    97    36   101 1   
    98    37    38 1   
    99    37   102 1   
   100    37   103 1   
   101    38   104 1   
   102    38   105 1   
   103    38   106 1   
   104    39    40 1   
   105    39   107 1   
   106    39   108 1   
   107    40    41 1   
@<TRIPOS>SUBSTRUCTURE
     1 Z41         1 TEMP              0 ****  ****    0 ROOT
