@<TRIPOS>MOLECULE
Z41
  108   107     1     0     0
SMALL
bcc


@<TRIPOS>ATOM
      1 C1           9.5470    -5.7340    25.1910 c3         1 Z41      -0.088100
      2 C2           9.1100    -4.7600    26.2760 c3         1 Z41      -0.076400
      3 C3           7.7590    -4.1160    25.9860 c3         1 Z41      -0.076400
      4 C4           7.3160    -3.1420    27.0720 c3         1 Z41      -0.072400
      5 C5           6.0210    -2.3970    26.7580 c3         1 Z41      -0.073400
      6 C6           4.7830    -3.2840    26.6760 c3         1 Z41      -0.076400
      7 C7           3.5170    -2.4910    26.3720 c3         1 Z41      -0.073400
      8 C8           2.2610    -3.3440    26.2140 c3         1 Z41      -0.072400
      9 C9           1.7710    -3.9880    27.5060 c3         1 Z41      -0.075400
     10 C10          0.4820    -4.7790    27.3170 c3         1 Z41      -0.077400
     11 C11         -0.0830    -5.3440    28.6130 c3         1 Z41      -0.075400
     12 C12         -1.4080    -6.0720    28.4120 c3         1 Z41      -0.075400
     13 C13         -2.0750    -6.5380    29.7020 c3         1 Z41      -0.074400
     14 C14         -1.3400    -7.6710    30.4080 c3         1 Z41      -0.070400
     15 C15         -2.0610    -8.0660    31.7000 c3         1 Z41      -0.136400
     16 C16         -1.3930    -9.1770    32.4600 c          1 Z41       0.645100
     17 O1          -0.9930    -9.1020    33.5950 o          1 Z41      -0.536000
     18 O2          -1.2930   -10.2860    31.7300 os         1 Z41      -0.415900
     19 C17         -0.6750   -11.4200    32.3300 c3         1 Z41       0.129400
     20 C18         -0.5850   -12.4920    31.2660 c3         1 Z41       0.143100
     21 O3           0.3030   -12.0240    30.2480 os         1 Z41      -0.429900
     22 C19         -0.1110   -11.9070    28.9860 c          1 Z41       0.656100
     23 O4          -1.2370   -12.1300    28.6220 o          1 Z41      -0.526000
     24 C20          1.0290   -11.4950    28.0930 c3         1 Z41      -0.135400
     25 C21          0.6220   -11.1250    26.6750 c3         1 Z41      -0.064400
     26 C22         -0.0710    -9.7720    26.5550 c3         1 Z41      -0.078400
     27 C23         -0.4290    -9.4330    25.1130 c3         1 Z41      -0.075400
     28 C24         -1.0510    -8.0500    24.9600 c3         1 Z41      -0.073400
     29 C25         -1.3950    -7.6690    23.5230 c3         1 Z41      -0.071400
     30 C26         -2.5360    -8.4800    22.9180 c3         1 Z41      -0.077400
     31 C27         -2.8980    -8.0480    21.5020 c3         1 Z41      -0.076400
     32 C28         -4.0850    -8.8220    20.9400 c3         1 Z41      -0.074400
     33 C29         -4.4390    -8.4860    19.4950 c3         1 Z41      -0.073400
     34 C30         -4.8530    -7.0320    19.2780 c3         1 Z41      -0.073400
     35 C31         -5.5580    -6.7860    17.9470 c3         1 Z41      -0.074400
     36 C32         -4.7050    -7.0670    16.7150 c3         1 Z41      -0.076400
     37 C33         -5.4430    -6.7940    15.4100 c3         1 Z41      -0.076400
     38 C34         -4.5990    -7.0860    14.1770 c3         1 Z41      -0.088100
     39 C35         -0.0250   -13.7780    31.8380 c3         1 Z41       0.130400
     40 O5          -0.0070   -14.7410    30.8170 oh         1 Z41      -0.587800
     41 H5O          0.4400   -15.5260    31.1480 ho         1 Z41       0.410000
     42 H11         10.5140    -6.1830    25.4190 hc         1 Z41       0.031367
     43 H12          8.8250    -6.5450    25.0770 hc         1 Z41       0.031367
     44 H13          9.6340    -5.2340    24.2250 hc         1 Z41       0.031367
     45 H21          9.0630    -5.2790    27.2380 hc         1 Z41       0.035700
     46 H22          9.8660    -3.9770    26.3920 hc         1 Z41       0.035700
     47 H31          7.8080    -3.5880    25.0270 hc         1 Z41       0.037700
     48 H32          7.0110    -4.9040    25.8590 hc         1 Z41       0.037700
     49 H41          7.2070    -3.6800    28.0200 hc         1 Z41       0.036700
     50 H42          8.1130    -2.4090    27.2340 hc         1 Z41       0.036700
     51 H51          5.8550    -1.6340    27.5250 hc         1 Z41       0.036200
     52 H52          6.1390    -1.8540    25.8140 hc         1 Z41       0.036200
     53 H61          4.9160    -4.0440    25.9000 hc         1 Z41       0.038700
     54 H62          4.6730    -3.8290    27.6190 hc         1 Z41       0.038700
     55 H71          3.3530    -1.7450    27.1580 hc         1 Z41       0.036700
     56 H72          3.6770    -1.9230    25.4490 hc         1 Z41       0.036700
     57 H81          1.4570    -2.7210    25.8100 hc         1 Z41       0.037200
     58 H82          2.4440    -4.1210    25.4630 hc         1 Z41       0.037200
     59 H91          2.5410    -4.6480    27.9180 hc         1 Z41       0.038200
     60 H92          1.6090    -3.2070    28.2570 hc         1 Z41       0.038200
     61 H101        -0.2710    -4.1350    26.8470 hc         1 Z41       0.036700
     62 H102         0.6600    -5.5960    26.6090 hc         1 Z41       0.036700
     63 H111         0.6540    -6.0160    29.0650 hc         1 Z41       0.038200
     64 H112        -0.2290    -4.5280    29.3300 hc         1 Z41       0.038200
     65 H121        -2.0980    -5.4040    27.8860 hc         1 Z41       0.040700
     66 H122        -1.2580    -6.9300    27.7490 hc         1 Z41       0.040700
     67 H131        -2.1780    -5.6880    30.3850 hc         1 Z41       0.039700
     68 H132        -3.0930    -6.8710    29.4790 hc         1 Z41       0.039700
     69 H141        -1.2710    -8.5290    29.7340 hc         1 Z41       0.052700
     70 H142        -0.3150    -7.3710    30.6420 hc         1 Z41       0.052700
     71 H151        -2.1330    -7.2040    32.3630 hc         1 Z41       0.072700
     72 H152        -3.0830    -8.3770    31.4610 hc         1 Z41       0.072700
     73 H171         0.3190   -11.1650    32.7070 h1         1 Z41       0.058700
     74 H172        -1.2750   -11.7830    33.1680 h1         1 Z41       0.058700
     75 H181        -1.5770   -12.6810    30.8490 h1         1 Z41       0.096700
     76 H201         1.5740   -10.6730    28.5650 hc         1 Z41       0.070700
     77 H202         1.7310   -12.3360    28.0750 hc         1 Z41       0.070700
     78 H211         1.5260   -11.1090    26.0610 hc         1 Z41       0.049700
     79 H212        -0.0130   -11.9090    26.2520 hc         1 Z41       0.049700
     80 H221        -0.9780    -9.7540    27.1680 hc         1 Z41       0.042200
     81 H222         0.5870    -8.9950    26.9600 hc         1 Z41       0.042200
     82 H231         0.4710    -9.4890    24.4920 hc         1 Z41       0.039200
     83 H232        -1.1100   -10.1990    24.7280 hc         1 Z41       0.039200
     84 H241        -1.9530    -7.9840    25.5790 hc         1 Z41       0.037200
     85 H242        -0.3540    -7.3090    25.3670 hc         1 Z41       0.037200
     86 H251        -1.6670    -6.6090    23.4920 hc         1 Z41       0.036700
     87 H252        -0.5020    -7.7690    22.8970 hc         1 Z41       0.036700
     88 H261        -2.2810    -9.5440    22.9100 hc         1 Z41       0.038700
     89 H262        -3.4200    -8.3860    23.5590 hc         1 Z41       0.038700
     90 H271        -3.1180    -6.9750    21.4990 hc         1 Z41       0.036700
     91 H272        -2.0300    -8.1800    20.8460 hc         1 Z41       0.036700
     92 H281        -3.8750    -9.8950    21.0140 hc         1 Z41       0.037200
     93 H282        -4.9600    -8.6430    21.5750 hc         1 Z41       0.037200
     94 H291        -3.5920    -8.7370    18.8490 hc         1 Z41       0.037700
     95 H292        -5.2610    -9.1370    19.1770 hc         1 Z41       0.037700
     96 H301        -5.5260    -6.7340    20.0890 hc         1 Z41       0.037700
     97 H302        -3.9800    -6.3770    19.3550 hc         1 Z41       0.037700
     98 H311        -6.4610    -7.4060    17.9060 hc         1 Z41       0.036200
     99 H312        -5.9020    -5.7480    17.9100 hc         1 Z41       0.036200
    100 H321        -3.7960    -6.4560    16.7530 hc         1 Z41       0.037700
    101 H322        -4.3700    -8.1090    16.7210 hc         1 Z41       0.037700
    102 H331        -6.3550    -7.3990    15.3810 hc         1 Z41       0.035700
    103 H332        -5.7730    -5.7510    15.3910 hc         1 Z41       0.035700
    104 H341        -5.1490    -6.8880    13.2570 hc         1 Z41       0.031367
    105 H342        -3.6970    -6.4720    14.1620 hc         1 Z41       0.031367
    106 H343        -4.2840    -8.1310    14.1550 hc         1 Z41       0.031367
    107 H351         0.9770   -13.5920    32.2460 h1         1 Z41       0.029700
    108 H352        -0.6630   -14.0810    32.6790 h1         1 Z41       0.029700
@<TRIPOS>BOND
     1     1     2 1   
     2     1    42 1   
     3     1    43 1   
     4     1    44 1   
     5     2     3 1   
     6     2    45 1   
     7     2    46 1   
     8     3     4 1   
     9     3    47 1   
    10     3    48 1   
    11     4     5 1   
    12     4    49 1   
    13     4    50 1   
    14     5     6 1   
    15     5    51 1   
    16     5    52 1   
    17     6     7 1   
    18     6    53 1   
    19     6    54 1   
    20     7     8 1   
    21     7    55 1   
    22     7    56 1   
    23     8     9 1   
    24     8    57 1   
    25     8    58 1   
    26     9    10 1   
    27     9    59 1   
    28     9    60 1   
    29    10    11 1   
    30    10    61 1   
    31    10    62 1   
    32    11    12 1   
    33    11    63 1   
    34    11    64 1   
    35    12    13 1   
    36    12    65 1   
    37    12    66 1   
    38    13    14 1   
    39    13    67 1   
    40    13    68 1   
    41    14    15 1   
    42    14    69 1   
    43    14    70 1   
    44    15    16 1   
    45    15    71 1   
    46    15    72 1   
    47    16    17 2   
    48    16    18 1   
    49    18    19 1   
    50    19    20 1   
    51    19    73 1   
    52    19    74 1   
    53    20    21 1   
    54    20    39 1   
    55    20    75 1   
    56    21    22 1   
    57    22    23 2   
    58    22    24 1   
    59    24    25 1   
    60    24    76 1   
    61    24    77 1   
    62    25    26 1   
    63    25    78 1   
    64    25    79 1   
    65    26    27 1   
    66    26    80 1   
    67    26    81 1   
    68    27    28 1   
    69    27    82 1   
    70    27    83 1   
    71    28    29 1   
    72    28    84 1   
    73    28    85 1   
    74    29    30 1   
    75    29    86 1   
    76    29    87 1   
    77    30    31 1   
    78    30    88 1   
    79    30    89 1   
    80    31    32 1   
    81    31    90 1   
    82    31    91 1   
    83    32    33 1   
    84    32    92 1   
    85    32    93 1   
    86    33    34 1   
    87    33    94 1   
    88    33    95 1   
    89    34    35 1   
    90    34    96 1   
    91    34    97 1   
    92    35    36 1   
    93    35    98 1   
    94    35    99 1   
    95    36    37 1   
    96    36   100 1   
    97    36   101 1   
    98    37    38 1   
    99    37   102 1   
   100    37   103 1   
   101    38   104 1   
   102    38   105 1   
   103    38   106 1   
   104    39    40 1   
   105    39   107 1   
   106    39   108 1   
   107    40    41 1   
@<TRIPOS>SUBSTRUCTURE
     1 Z41         1 TEMP              0 ****  ****    0 ROOT
