@<TRIPOS>MOLECULE
Z46
   34    35     1     0     0
SMALL
No Charge or Current Charge


@<TRIPOS>ATOM
      1 N1           2.3850    -1.5330    -0.1460 nc         1 Z46      -0.530800
      2 N2           1.3240    -2.4280    -0.1300 na         1 Z46       0.017800
      3 C3           0.0880    -1.8020    -0.0380 cc         1 Z46      -0.162300
      4 C4           0.3800    -0.4750    -0.0080 cd         1 Z46      -0.127300
      5 C5           1.7950    -0.3360    -0.0660 cd         1 Z46       0.198500
      6 C6           2.5710     0.9630    -0.0370 c          1 Z46       0.554600
      7 N7           3.9590     0.7780    -0.1140 ns         1 Z46      -0.403300
      8 N8           4.9590     1.8450    -0.1070 n8         1 Z46      -0.720200
      9 O9           2.0700     2.0820     0.0460 o          1 Z46      -0.568100
     10 C10         -1.2930    -2.4010     0.0080 c6         1 Z46      -0.008100
     11 C11         -2.3130    -1.3350     0.4940 c6         1 Z46      -0.068400
     12 C12         -2.1000     0.0460    -0.2060 c6         1 Z46      -0.062700
     13 C13         -0.6750     0.6080     0.0980 c6         1 Z46       0.005900
     14 C14         -3.1920     1.0980     0.1680 c3         1 Z46      -0.074400
     15 C15         -4.6340     0.7520    -0.2760 c3         1 Z46      -0.074400
     16 C16         -5.6400     1.8820     0.0190 c3         1 Z46      -0.089100
     17 HN2          1.4810    -3.4340    -0.1800 hn         1 Z46       0.372000
     18 HN7          4.2580    -0.1990    -0.1790 hn         1 Z46       0.319500
     19 HN8          5.6120     1.7420     0.6850 hn         1 Z46       0.396500
     20 HN8A         5.5330     1.8270    -0.9640 hn         1 Z46       0.396500
     21 H10         -1.5820    -2.7540    -0.9910 hc         1 Z46       0.052200
     22 H10A        -1.3250    -3.2770     0.6700 hc         1 Z46       0.052200
     23 H11         -3.3260    -1.7150     0.3130 hc         1 Z46       0.047200
     24 H11A        -2.2200    -1.2100     1.5820 hc         1 Z46       0.047200
     25 H12         -2.1770    -0.1080    -1.2920 hc         1 Z46       0.048700
     26 H13         -0.6530     1.0370     1.1100 hc         1 Z46       0.064700
     27 H13A        -0.4560     1.4330    -0.5930 hc         1 Z46       0.064700
     28 H14         -3.1900     1.2620     1.2530 hc         1 Z46       0.042700
     29 H14A        -2.9250     2.0610    -0.2840 hc         1 Z46       0.042700
     30 H15         -4.6430     0.5390    -1.3520 hc         1 Z46       0.035700
     31 H15A        -4.9750    -0.1550     0.2350 hc         1 Z46       0.035700
     32 H16         -6.6460     1.5920    -0.3070 hc         1 Z46       0.032367
     33 H16A        -5.6770     2.0980     1.0940 hc         1 Z46       0.032367
     34 H16B        -5.3600     2.8000    -0.5100 hc         1 Z46       0.032367
@<TRIPOS>BOND
     1     1     2 1   
     2     1     5 2   
     3     2     3 1   
     4     2    17 1   
     5     3     4 2   
     6     3    10 1   
     7     4     5 1   
     8     4    13 1   
     9     5     6 1   
    10     6     7 1   
    11     6     9 2   
    12     7     8 1   
    13     7    18 1   
    14     8    19 1   
    15     8    20 1   
    16    10    11 1   
    17    10    21 1   
    18    10    22 1   
    19    11    12 1   
    20    11    23 1   
    21    11    24 1   
    22    12    13 1   
    23    12    14 1   
    24    12    25 1   
    25    13    26 1   
    26    13    27 1   
    27    14    15 1   
    28    14    28 1   
    29    14    29 1   
    30    15    16 1   
    31    15    30 1   
    32    15    31 1   
    33    16    32 1   
    34    16    33 1   
    35    16    34 1   
@<TRIPOS>SUBSTRUCTURE
     1 Z46         1 TEMP              0 ****  ****    0 ROOT
