@<TRIPOS>MOLECULE
Z46
   34    35     1     0     0
SMALL
abcg2


@<TRIPOS>ATOM
      1 N1           2.3010    -1.4990    -0.1350 nc         1 Z46      -0.530800
      2 N2           1.2740    -2.3280    -0.1240 na         1 Z46       0.017800
      3 C3           0.0870    -1.6960    -0.0380 cc         1 Z46      -0.162300
      4 C4           0.3620    -0.3490     0.0050 cd         1 Z46      -0.127300
      5 C5           1.7690    -0.2860    -0.0550 cd         1 Z46       0.198500
      6 C6           2.6150     0.9280    -0.0240 c          1 Z46       0.554600
      7 N7           3.9330     0.6850    -0.1380 ns         1 Z46      -0.403300
      8 N8           4.8560     1.7140    -0.1110 n8         1 Z46      -0.720200
      9 O9           2.1200     2.0380     0.0980 o          1 Z46      -0.568100
     10 C10         -1.2640    -2.3150     0.0130 c6         1 Z46      -0.008100
     11 C11         -2.2550    -1.2650     0.5180 c6         1 Z46      -0.068400
     12 C12         -2.0870     0.0790    -0.1970 c6         1 Z46      -0.062700
     13 C13         -0.7080     0.6870     0.0980 c6         1 Z46       0.005900
     14 C14         -3.1840     1.0790     0.1670 c3         1 Z46      -0.074400
     15 C15         -4.5820     0.7080    -0.3170 c3         1 Z46      -0.074400
     16 C16         -5.6130     1.7770     0.0180 c3         1 Z46      -0.089100
     17 HN2          1.4360    -3.3220    -0.1740 hn         1 Z46       0.372000
     18 HN7          4.2470    -0.2710    -0.2310 hn         1 Z46       0.319500
     19 HN8          5.4950     1.5660     0.6600 hn         1 Z46       0.396500
     20 HN8A         5.4000     1.6940    -0.9640 hn         1 Z46       0.396500
     21 H10         -1.5580    -2.6590    -0.9840 hc         1 Z46       0.052200
     22 H10A        -1.2690    -3.1940     0.6610 hc         1 Z46       0.052200
     23 H11         -3.2690    -1.6460     0.3840 hc         1 Z46       0.047200
     24 H11A        -2.1150    -1.1170     1.5940 hc         1 Z46       0.047200
     25 H12         -2.1460    -0.1090    -1.2780 hc         1 Z46       0.048700
     26 H13         -0.7120     1.1320     1.1000 hc         1 Z46       0.064700
     27 H13A        -0.5110     1.5080    -0.5930 hc         1 Z46       0.064700
     28 H14         -3.1980     1.2140     1.2550 hc         1 Z46       0.042700
     29 H14A        -2.9180     2.0550    -0.2530 hc         1 Z46       0.042700
     30 H15         -4.5580     0.5490    -1.4000 hc         1 Z46       0.035700
     31 H15A        -4.8950    -0.2420     0.1230 hc         1 Z46       0.035700
     32 H16         -6.6020     1.5090    -0.3550 hc         1 Z46       0.032367
     33 H16A        -5.6950     1.9230     1.0960 hc         1 Z46       0.032367
     34 H16B        -5.3420     2.7390    -0.4230 hc         1 Z46       0.032367
@<TRIPOS>BOND
     1     1     2 1   
     2     1     5 2   
     3     2     3 1   
     4     2    17 1   
     5     3     4 2   
     6     3    10 1   
     7     4     5 1   
     8     4    13 1   
     9     5     6 1   
    10     6     7 1   
    11     6     9 2   
    12     7     8 1   
    13     7    18 1   
    14     8    19 1   
    15     8    20 1   
    16    10    11 1   
    17    10    21 1   
    18    10    22 1   
    19    11    12 1   
    20    11    23 1   
    21    11    24 1   
    22    12    13 1   
    23    12    14 1   
    24    12    25 1   
    25    13    26 1   
    26    13    27 1   
    27    14    15 1   
    28    14    28 1   
    29    14    29 1   
    30    15    16 1   
    31    15    30 1   
    32    15    31 1   
    33    16    32 1   
    34    16    33 1   
    35    16    34 1   
@<TRIPOS>SUBSTRUCTURE
     1 Z46         1 TEMP              0 ****  ****    0 ROOT
