@<TRIPOS>MOLECULE
Z47
   48    50     1     0     0
SMALL
abcg2


@<TRIPOS>ATOM
      1 C1          -1.8890    -1.0480     0.5230 c6         1 Z47       0.167300
      2 C2          -3.1470    -1.7960     0.0920 c6         1 Z47       0.152300
      3 C3          -4.0070    -0.9090    -0.8030 c6         1 Z47       0.134300
      4 C4          -4.2790     0.4300    -0.1290 c6         1 Z47       0.101300
      5 C5          -2.9490     1.0740     0.2850 c6         1 Z47       0.144300
      6 C6          -3.1610     2.3550     1.0620 c3         1 Z47       0.169600
      7 O2          -3.8430    -2.1730     1.2580 oh         1 Z47      -0.713000
      8 O3          -5.1950    -1.6110    -1.0830 oh         1 Z47      -0.671000
      9 O4          -4.9800     1.2300    -1.0600 oh         1 Z47      -0.729000
     10 O5          -2.2220     0.1930     1.1120 os         1 Z47      -0.422000
     11 O6          -1.9140     2.9670     1.2880 oh         1 Z47      -0.705000
     12 C7          -0.8640    -0.9270    -0.6020 c3         1 Z47      -0.105400
     13 C8           0.4140    -0.2180    -0.1720 c3         1 Z47      -0.074400
     14 C9           1.3970    -0.0720    -1.3360 c3         1 Z47      -0.033100
     15 C10          2.7140     0.5150    -0.9120 ca         1 Z47      -0.062300
     16 C15          2.9420     1.8600    -1.0670 ca         1 Z47      -0.105000
     17 C14          4.1440     2.4640    -0.6480 ca         1 Z47      -0.105000
     18 C13          5.1270     1.7100    -0.0710 ca         1 Z47      -0.101000
     19 C12          4.9440     0.3190     0.1080 ca         1 Z47      -0.036000
     20 C11          3.7290    -0.2890    -0.3120 ca         1 Z47      -0.026000
     21 C16          5.9530    -0.4780     0.6980 ca         1 Z47      -0.099000
     22 C17          5.7770    -1.8230     0.8700 ca         1 Z47      -0.109000
     23 C18          4.5750    -2.4320     0.4570 ca         1 Z47      -0.110000
     24 C19          3.5800    -1.6850    -0.1150 ca         1 Z47      -0.100000
     25 H21         -1.4220    -1.6260     1.3280 h1         1 Z47       0.094700
     26 H22         -2.8410    -2.6840    -0.4820 h1         1 Z47       0.050700
     27 H23         -3.4500    -0.7140    -1.7320 h1         1 Z47       0.052700
     28 H24         -4.8850     0.2570     0.7700 h1         1 Z47       0.061700
     29 H71C        -0.6190    -1.9410    -0.9320 hc         1 Z47       0.042700
     30 H72C        -1.2800    -0.4230    -1.4800 hc         1 Z47       0.042700
     31 H2          -4.7040    -2.5150     0.9930 ho         1 Z47       0.520000
     32 H3          -5.7930    -1.0180    -1.5500 ho         1 Z47       0.464000
     33 H5          -2.3840     1.3190    -0.6290 h1         1 Z47       0.059700
     34 H4          -5.5900     1.8040    -0.5880 ho         1 Z47       0.510000
     35 H61C        -3.8250     3.0080     0.4830 h1         1 Z47       0.023700
     36 H62C        -3.6790     2.1210     2.0030 h1         1 Z47       0.023700
     37 H6          -2.0700     3.7870     1.7660 ho         1 Z47       0.503000
     38 H81C         0.1820     0.7750     0.2210 hc         1 Z47       0.059200
     39 H82C         0.8810    -0.7730     0.6470 hc         1 Z47       0.059200
     40 H91C         1.5400    -1.0400    -1.8230 hc         1 Z47       0.043700
     41 H92C         0.9490     0.5790    -2.0920 hc         1 Z47       0.043700
     42 H15          2.1770     2.4750    -1.5250 ha         1 Z47       0.112000
     43 H14          4.2840     3.5280    -0.7910 ha         1 Z47       0.112000
     44 H13          6.0540     2.1660     0.2540 ha         1 Z47       0.112000
     45 H16          6.8740    -0.0020     1.0140 ha         1 Z47       0.111000
     46 H19          2.6690    -2.1790    -0.4250 ha         1 Z47       0.112000
     47 H17          6.5570    -2.4220     1.3210 ha         1 Z47       0.112000
     48 H18          4.4380    -3.4960     0.5950 ha         1 Z47       0.111000
@<TRIPOS>BOND
     1     1     2 1   
     2     1    10 1   
     3     1    12 1   
     4     1    25 1   
     5     2     3 1   
     6     2     7 1   
     7     2    26 1   
     8     3     4 1   
     9     3     8 1   
    10     3    27 1   
    11     4     5 1   
    12     4     9 1   
    13     4    28 1   
    14     5     6 1   
    15     5    10 1   
    16     5    33 1   
    17     6    11 1   
    18     6    35 1   
    19     6    36 1   
    20     7    31 1   
    21     8    32 1   
    22     9    34 1   
    23    11    37 1   
    24    12    13 1   
    25    12    29 1   
    26    12    30 1   
    27    13    14 1   
    28    13    38 1   
    29    13    39 1   
    30    14    15 1   
    31    14    40 1   
    32    14    41 1   
    33    15    16 ar  
    34    15    20 ar  
    35    16    17 ar  
    36    16    42 1   
    37    17    18 ar  
    38    17    43 1   
    39    18    19 ar  
    40    18    44 1   
    41    19    20 ar  
    42    19    21 ar  
    43    20    24 ar  
    44    21    22 ar  
    45    21    45 1   
    46    22    23 ar  
    47    22    47 1   
    48    23    24 ar  
    49    23    48 1   
    50    24    46 1   
@<TRIPOS>SUBSTRUCTURE
     1 Z47         1 TEMP              0 ****  ****    0 ROOT
