@<TRIPOS>MOLECULE
Z47
   48    50     1     0     0
SMALL
No Charge or Current Charge


@<TRIPOS>ATOM
      1 C1          -1.9380    -1.2050     0.4650 c6         1 Z47       0.167300
      2 C2          -3.2690    -1.8910     0.0090 c6         1 Z47       0.152300
      3 C3          -4.1210    -0.8980    -0.8440 c6         1 Z47       0.134300
      4 C4          -4.3180     0.4660    -0.1090 c6         1 Z47       0.101300
      5 C5          -2.9280     1.0470     0.3130 c6         1 Z47       0.144300
      6 C6          -3.0530     2.3620     1.1530 c3         1 Z47       0.169600
      7 O2          -4.0570    -2.3300     1.1320 oh         1 Z47      -0.713000
      8 O3          -5.4050    -1.4750    -1.1460 oh         1 Z47      -0.671000
      9 O4          -5.0550     1.3720    -0.9640 oh         1 Z47      -0.729000
     10 O5          -2.2100     0.0670     1.1150 os         1 Z47      -0.422000
     11 O6          -1.7830     2.8830     1.5930 oh         1 Z47      -0.705000
     12 C7          -0.8980    -1.0100    -0.6880 c3         1 Z47      -0.105400
     13 C8           0.4270    -0.3390    -0.2540 c3         1 Z47      -0.074400
     14 C9           1.4460    -0.2060    -1.4080 c3         1 Z47      -0.033100
     15 C10          2.7570     0.4410    -0.9560 ca         1 Z47      -0.062300
     16 C15          2.9380     1.8160    -1.2140 ca         1 Z47      -0.105000
     17 C14          4.1150     2.4730    -0.8270 ca         1 Z47      -0.105000
     18 C13          5.1310     1.7630    -0.1720 ca         1 Z47      -0.101000
     19 C12          4.9710     0.3930     0.1000 ca         1 Z47      -0.036000
     20 C11          3.7850    -0.2810    -0.2870 ca         1 Z47      -0.026000
     21 C16          6.0020    -0.3020     0.7630 ca         1 Z47      -0.099000
     22 C17          5.8640    -1.6690     1.0480 ca         1 Z47      -0.109000
     23 C18          4.6950    -2.3460     0.6720 ca         1 Z47      -0.110000
     24 C19          3.6620    -1.6610     0.0100 ca         1 Z47      -0.100000
     25 H21         -1.4650    -1.8630     1.2100 h1         1 Z47       0.094700
     26 H22         -3.0140    -2.7570    -0.6210 h1         1 Z47       0.050700
     27 H23         -3.5800    -0.7030    -1.7820 h1         1 Z47       0.052700
     28 H24         -4.8910     0.2760     0.8120 h1         1 Z47       0.061700
     29 H71C        -0.6560    -1.9950    -1.1050 hc         1 Z47       0.042700
     30 H72C        -1.3270    -0.4400    -1.5190 hc         1 Z47       0.042700
     31 H2          -4.9730    -2.3850     0.7670 ho         1 Z47       0.520000
     32 H3          -5.9340    -0.7290    -1.5130 ho         1 Z47       0.464000
     33 H5          -2.3420     1.2860    -0.5850 h1         1 Z47       0.059700
     34 H4          -5.5170     2.0230    -0.3840 ho         1 Z47       0.510000
     35 H61C        -3.5670     3.1160     0.5420 h1         1 Z47       0.023700
     36 H62C        -3.6930     2.1540     2.0220 h1         1 Z47       0.023700
     37 H6          -1.9750     3.6550     2.1750 ho         1 Z47       0.503000
     38 H81C         0.2180     0.6610     0.1460 hc         1 Z47       0.059200
     39 H82C         0.8730    -0.9170     0.5650 hc         1 Z47       0.059200
     40 H91C         1.6320    -1.1880    -1.8590 hc         1 Z47       0.043700
     41 H92C         0.9900     0.3920    -2.2060 hc         1 Z47       0.043700
     42 H15          2.1590     2.3820    -1.7190 ha         1 Z47       0.112000
     43 H14          4.2400     3.5330    -1.0340 ha         1 Z47       0.112000
     44 H13          6.0400     2.2800     0.1250 ha         1 Z47       0.112000
     45 H16          6.9110     0.2170     1.0580 ha         1 Z47       0.111000
     46 H19          2.7730    -2.2200    -0.2620 ha         1 Z47       0.112000
     47 H17          6.6620    -2.2020     1.5600 ha         1 Z47       0.112000
     48 H18          4.5870    -3.4060     0.8930 ha         1 Z47       0.111000
@<TRIPOS>BOND
     1     1     2 1   
     2     1    10 1   
     3     1    12 1   
     4     1    25 1   
     5     2     3 1   
     6     2     7 1   
     7     2    26 1   
     8     3     4 1   
     9     3     8 1   
    10     3    27 1   
    11     4     5 1   
    12     4     9 1   
    13     4    28 1   
    14     5     6 1   
    15     5    10 1   
    16     5    33 1   
    17     6    11 1   
    18     6    35 1   
    19     6    36 1   
    20     7    31 1   
    21     8    32 1   
    22     9    34 1   
    23    11    37 1   
    24    12    13 1   
    25    12    29 1   
    26    12    30 1   
    27    13    14 1   
    28    13    38 1   
    29    13    39 1   
    30    14    15 1   
    31    14    40 1   
    32    14    41 1   
    33    15    16 ar  
    34    15    20 ar  
    35    16    17 ar  
    36    16    42 1   
    37    17    18 ar  
    38    17    43 1   
    39    18    19 ar  
    40    18    44 1   
    41    19    20 ar  
    42    19    21 ar  
    43    20    24 ar  
    44    21    22 ar  
    45    21    45 1   
    46    22    23 ar  
    47    22    47 1   
    48    23    24 ar  
    49    23    48 1   
    50    24    46 1   
@<TRIPOS>SUBSTRUCTURE
     1 Z47         1 TEMP              0 ****  ****    0 ROOT
