@<TRIPOS>MOLECULE
Z4I
   36    37     1     0     0
SMALL
abcg2


@<TRIPOS>ATOM
      1 N12         29.1460    -5.2630   -10.4040 nb         1 Z4I      -0.246000
      2 C13         30.3930    -4.8150   -10.6290 ca         1 Z4I       0.400900
      3 C15         32.4390    -5.0830   -11.9530 c3         1 Z4I       0.287100
      4 C17         34.6080    -4.8310   -10.7120 ca         1 Z4I      -0.096500
      5 C20         34.2230    -7.2050    -9.3420 ca         1 Z4I      -0.108000
      6 C21         33.2670    -6.7600   -10.2460 ca         1 Z4I      -0.096500
      7 C02         26.0430    -4.7690    -5.5540 c3         1 Z4I       0.112300
      8 C04         25.7920    -3.2540    -5.4710 c          1 Z4I       0.566100
      9 C07         28.3210    -3.0230    -7.5110 c          1 Z4I       0.633700
     10 C08         29.0080    -3.6600    -8.6480 ca         1 Z4I      -0.352600
     11 C09         30.3130    -3.2870    -8.9660 ca         1 Z4I       0.201400
     12 C11         28.4790    -4.6880    -9.4300 ca         1 Z4I       0.201400
     13 C16         33.4500    -5.5680   -10.9390 ca         1 Z4I      -0.103300
     14 C18         35.5690    -5.2770    -9.8140 ca         1 Z4I      -0.108000
     15 C19         35.3780    -6.4660    -9.1230 ca         1 Z4I      -0.104000
     16 F01         27.3710    -5.0050    -5.3810 f          1 Z4I      -0.101000
     17 F03         25.3930    -5.3610    -4.5330 f          1 Z4I      -0.101000
     18 N05         26.2270    -2.5430    -6.5320 ns         1 Z4I      -0.369500
     19 N06         26.9510    -3.1150    -7.5330 ns         1 Z4I      -0.382500
     20 N10         31.0020    -3.8390    -9.9410 nb         1 Z4I      -0.246000
     21 N14         31.0710    -5.3970   -11.6240 nu         1 Z4I      -0.908100
     22 O22         28.9130    -2.4670    -6.6100 o          1 Z4I      -0.552100
     23 O23         25.2210    -2.7590    -4.5290 o          1 Z4I      -0.531100
     24 H1          32.6400    -5.5460   -12.9200 h1         1 Z4I       0.062200
     25 H2          32.5520    -4.0070   -12.0950 h1         1 Z4I       0.062200
     26 H3          34.7600    -3.8950   -11.2380 ha         1 Z4I       0.111000
     27 H4          34.0630    -8.1330    -8.8070 ha         1 Z4I       0.114000
     28 H5          32.3710    -7.3480   -10.4030 ha         1 Z4I       0.111000
     29 H6          25.7180    -5.2180    -6.4940 h2         1 Z4I       0.066700
     30 H7          30.8100    -2.5010    -8.4080 h4         1 Z4I       0.031600
     31 H8          27.4840    -5.0810    -9.2470 h4         1 Z4I       0.031600
     32 H9          36.4630    -4.6890    -9.6480 ha         1 Z4I       0.114000
     33 H10         36.1210    -6.8120    -8.4170 ha         1 Z4I       0.114000
     34 H11         26.1410    -1.5340    -6.5130 hn         1 Z4I       0.337500
     35 H12         26.4580    -3.2540    -8.4040 hn         1 Z4I       0.331500
     36 H13         30.6080    -6.1430   -12.1160 hn         1 Z4I       0.513000
@<TRIPOS>BOND
     1     1     2 ar  
     2     1    12 ar  
     3     2    20 ar  
     4     2    21 1   
     5     3    13 1   
     6     3    21 1   
     7     3    24 1   
     8     3    25 1   
     9     4    13 ar  
    10     4    14 ar  
    11     4    26 1   
    12     5     6 ar  
    13     5    15 ar  
    14     5    27 1   
    15     6    13 ar  
    16     6    28 1   
    17     7     8 1   
    18     7    16 1   
    19     7    17 1   
    20     7    29 1   
    21     8    18 1   
    22     8    23 2   
    23     9    10 1   
    24     9    19 1   
    25     9    22 2   
    26    10    11 ar  
    27    10    12 ar  
    28    11    20 ar  
    29    11    30 1   
    30    12    31 1   
    31    14    15 ar  
    32    14    32 1   
    33    15    33 1   
    34    18    19 1   
    35    18    34 1   
    36    19    35 1   
    37    21    36 1   
@<TRIPOS>SUBSTRUCTURE
     1 Z4I         1 TEMP              0 ****  ****    0 ROOT
