@<TRIPOS>MOLECULE
Z4I
   36    37     1     0     0
SMALL
No Charge or Current Charge


@<TRIPOS>ATOM
      1 N12         29.1690    -5.0530   -10.7340 nb         1 Z4I      -0.246000
      2 C13         30.4170    -4.5740   -10.8450 ca         1 Z4I       0.400900
      3 C15         32.6300    -4.9850   -12.0800 c3         1 Z4I       0.287100
      4 C17         34.1090    -4.8640   -10.0070 ca         1 Z4I      -0.096500
      5 C20         34.2660    -7.6660    -9.8660 ca         1 Z4I      -0.108000
      6 C21         33.5220    -7.0530   -10.8900 ca         1 Z4I      -0.096500
      7 C02         27.0150    -4.3350    -4.9220 c3         1 Z4I       0.112300
      8 C04         25.9560    -3.2770    -5.3200 c          1 Z4I       0.566100
      9 C07         28.0550    -2.8780    -7.8400 c          1 Z4I       0.633700
     10 C08         28.8810    -3.4970    -8.9220 ca         1 Z4I      -0.352600
     11 C09         30.2050    -3.0690    -9.1340 ca         1 Z4I       0.201400
     12 C11         28.3990    -4.5140    -9.7700 ca         1 Z4I       0.201400
     13 C16         33.4370    -5.6480   -10.9670 ca         1 Z4I      -0.103300
     14 C18         34.8530    -5.4770    -8.9830 ca         1 Z4I      -0.108000
     15 C19         34.9320    -6.8780    -8.9130 ca         1 Z4I      -0.104000
     16 F01         28.1080    -3.7470    -4.3790 f          1 Z4I      -0.101000
     17 F03         26.5270    -5.1960    -3.9970 f          1 Z4I      -0.101000
     18 N05         25.8610    -2.9330    -6.6630 ns         1 Z4I      -0.369500
     19 N06         26.7640    -3.3610    -7.6910 ns         1 Z4I      -0.382500
     20 N10         30.9760    -3.6060   -10.0980 nb         1 Z4I      -0.246000
     21 N14         31.1820    -5.1470   -11.8510 nu         1 Z4I      -0.908100
     22 O22         28.4950    -1.9920    -7.1220 o          1 Z4I      -0.552100
     23 O23         25.2070    -2.7530    -4.5040 o          1 Z4I      -0.531100
     24 H1          32.9100    -5.4470   -13.0370 h1         1 Z4I       0.062200
     25 H2          32.8890    -3.9190   -12.1490 h1         1 Z4I       0.062200
     26 H3          34.0530    -3.7780   -10.0520 ha         1 Z4I       0.111000
     27 H4          34.3260    -8.7500    -9.8130 ha         1 Z4I       0.114000
     28 H5          33.0080    -7.6710   -11.6240 ha         1 Z4I       0.111000
     29 H6          27.3240    -4.9110    -5.7990 h2         1 Z4I       0.066700
     30 H7          30.6630    -2.2880    -8.5290 h4         1 Z4I       0.031600
     31 H8          27.3900    -4.9120    -9.6890 h4         1 Z4I       0.031600
     32 H9          35.3680    -4.8650    -8.2450 ha         1 Z4I       0.114000
     33 H10         35.5080    -7.3510    -8.1210 ha         1 Z4I       0.114000
     34 H11         25.1980    -2.2020    -6.9080 hn         1 Z4I       0.337500
     35 H12         26.4540    -4.1160    -8.2960 hn         1 Z4I       0.331500
     36 H13         30.7110    -5.8830   -12.3780 hn         1 Z4I       0.513000
@<TRIPOS>BOND
     1     1     2 ar  
     2     1    12 ar  
     3     2    20 ar  
     4     2    21 1   
     5     3    13 1   
     6     3    21 1   
     7     3    24 1   
     8     3    25 1   
     9     4    13 ar  
    10     4    14 ar  
    11     4    26 1   
    12     5     6 ar  
    13     5    15 ar  
    14     5    27 1   
    15     6    13 ar  
    16     6    28 1   
    17     7     8 1   
    18     7    16 1   
    19     7    17 1   
    20     7    29 1   
    21     8    18 1   
    22     8    23 2   
    23     9    10 1   
    24     9    19 1   
    25     9    22 2   
    26    10    11 ar  
    27    10    12 ar  
    28    11    20 ar  
    29    11    30 1   
    30    12    31 1   
    31    14    15 ar  
    32    14    32 1   
    33    15    33 1   
    34    18    19 1   
    35    18    34 1   
    36    19    35 1   
    37    21    36 1   
@<TRIPOS>SUBSTRUCTURE
     1 Z4I         1 TEMP              0 ****  ****    0 ROOT
