@<TRIPOS>MOLECULE
Z4K
   27    27     1     0     0
SMALL
abcg2


@<TRIPOS>ATOM
      1 O1          28.2720   -54.3890    32.9780 oh         1 Z4K      -0.719000
      2 O2          26.2720   -54.7020    31.0000 os         1 Z4K      -0.586700
      3 O3          26.0790   -52.1590    29.9920 oh         1 Z4K      -0.633000
      4 O4          27.6060   -50.1870    31.3140 oh         1 Z4K      -0.734000
      5 O5          27.1210   -52.6780    33.9400 os         1 Z4K      -0.442000
      6 C1          27.0060   -53.8490    33.2020 c6         1 Z4K       0.361300
      7 C2          26.2500   -53.5860    31.8820 c6         1 Z4K       0.176300
      8 C3          26.8740   -52.4280    31.1180 c6         1 Z4K       0.176300
      9 C4          26.9710   -51.2170    32.0390 c6         1 Z4K       0.094300
     10 C5          27.7660   -51.5940    33.2890 c6         1 Z4K       0.152300
     11 C6          27.9090   -50.4670    34.2890 c3         1 Z4K       0.160600
     12 S1          25.7160   -56.1670    31.5010 s6         1 Z4K       1.496300
     13 O7          26.8410   -56.7500    32.2550 o          1 Z4K      -0.706533
     14 O8          25.4570   -56.8370    30.2340 o          1 Z4K      -0.706533
     15 O9          24.5330   -55.8940    32.3170 o          1 Z4K      -0.706533
     16 HO1         28.1370   -55.3150    32.7230 ho         1 Z4K       0.516000
     17 HO3         26.4560   -51.3940    29.5460 ho         1 Z4K       0.433000
     18 HO4         27.3050   -49.3380    31.6510 ho         1 Z4K       0.498000
     19 HO6         26.7610   -49.2330    35.2430 ho         1 Z4K       0.489000
     20 H1          26.4020   -54.5150    33.8300 h2         1 Z4K       0.090700
     21 H2          25.2140   -53.3250    32.1330 h1         1 Z4K       0.067700
     22 H3          27.8950   -52.7140    30.8200 h1         1 Z4K       0.058700
     23 H4          25.9550   -50.9260    32.3330 h1         1 Z4K       0.064700
     24 H5          28.7860   -51.8720    32.9870 h1         1 Z4K       0.064700
     25 H61         28.4550   -50.8450    35.1630 h1         1 Z4K       0.022200
     26 H62         28.5440   -49.6950    33.8370 h1         1 Z4K       0.022200
     27 O6          26.6390   -49.9690    34.6380 oh         1 Z4K      -0.711000
@<TRIPOS>BOND
     1     1     6 1   
     2     1    16 1   
     3     2     7 1   
     4     2    12 1   
     5     3     8 1   
     6     3    17 1   
     7     4     9 1   
     8     4    18 1   
     9     5     6 1   
    10     5    10 1   
    11     6     7 1   
    12     6    20 1   
    13     7     8 1   
    14     7    21 1   
    15     8     9 1   
    16     8    22 1   
    17     9    10 1   
    18     9    23 1   
    19    10    11 1   
    20    10    24 1   
    21    11    25 1   
    22    11    26 1   
    23    11    27 1   
    24    12    13 1   
    25    12    14 1   
    26    12    15 1   
    27    19    27 1   
@<TRIPOS>SUBSTRUCTURE
     1 Z4K         1 TEMP              0 ****  ****    0 ROOT
