@<TRIPOS>MOLECULE
Z4K
   27    27     1     0     0
SMALL
No Charge or Current Charge


@<TRIPOS>ATOM
      1 O1          28.1920   -54.4540    33.0530 oh         1 Z4K      -0.719000
      2 O2          26.0870   -54.7950    30.9270 os         1 Z4K      -0.586700
      3 O3          26.1550   -52.0730    29.8540 oh         1 Z4K      -0.633000
      4 O4          27.6560   -50.1200    31.2440 oh         1 Z4K      -0.734000
      5 O5          27.0300   -52.6470    33.9410 os         1 Z4K      -0.442000
      6 C1          26.8900   -53.8760    33.2010 c6         1 Z4K       0.361300
      7 C2          26.1780   -53.6290    31.8090 c6         1 Z4K       0.176300
      8 C3          26.8600   -52.4390    31.0570 c6         1 Z4K       0.176300
      9 C4          26.9910   -51.1840    31.9670 c6         1 Z4K       0.094300
     10 C5          27.7530   -51.5810    33.2710 c6         1 Z4K       0.152300
     11 C6          27.9050   -50.3950    34.2830 c3         1 Z4K       0.160600
     12 S1          25.7930   -56.2940    31.5280 s6         1 Z4K       1.496300
     13 O7          27.0840   -56.6710    32.1210 o          1 Z4K      -0.706533
     14 O8          25.4090   -57.0820    30.3500 o          1 Z4K      -0.706533
     15 O9          24.7190   -56.0840    32.5060 o          1 Z4K      -0.706533
     16 HO1         27.9980   -55.3600    32.6800 ho         1 Z4K       0.516000
     17 HO3         26.5010   -51.1790    29.6370 ho         1 Z4K       0.433000
     18 HO4         27.4960   -49.2850    31.7450 ho         1 Z4K       0.498000
     19 HO6         26.8560   -49.2360    35.4800 ho         1 Z4K       0.489000
     20 H1          26.2620   -54.5540    33.8010 h2         1 Z4K       0.090700
     21 H2          25.1490   -53.3230    32.0450 h1         1 Z4K       0.067700
     22 H3          27.8790   -52.7610    30.7930 h1         1 Z4K       0.058700
     23 H4          25.9760   -50.8640    32.2520 h1         1 Z4K       0.064700
     24 H5          28.7630   -51.9330    33.0140 h1         1 Z4K       0.064700
     25 H61         28.4910   -50.7600    35.1370 h1         1 Z4K       0.022200
     26 H62         28.4990   -49.6030    33.8080 h1         1 Z4K       0.022200
     27 O6          26.6490   -49.8620    34.7480 oh         1 Z4K      -0.711000
@<TRIPOS>BOND
     1     1     6 1   
     2     1    16 1   
     3     2     7 1   
     4     2    12 1   
     5     3     8 1   
     6     3    17 1   
     7     4     9 1   
     8     4    18 1   
     9     5     6 1   
    10     5    10 1   
    11     6     7 1   
    12     6    20 1   
    13     7     8 1   
    14     7    21 1   
    15     8     9 1   
    16     8    22 1   
    17     9    10 1   
    18     9    23 1   
    19    10    11 1   
    20    10    24 1   
    21    11    25 1   
    22    11    26 1   
    23    11    27 1   
    24    12    13 1   
    25    12    14 1   
    26    12    15 1   
    27    19    27 1   
@<TRIPOS>SUBSTRUCTURE
     1 Z4K         1 TEMP              0 ****  ****    0 ROOT
