@<TRIPOS>MOLECULE
Z4R
   27    27     1     0     0
SMALL
bcc


@<TRIPOS>ATOM
      1 O4          28.6370    63.9080    11.2520 oh         1 Z4R      -0.597800
      2 C4          28.1950    65.1590    11.7130 c6         1 Z4R       0.136100
      3 C5          26.6840    65.0670    11.9350 c6         1 Z4R       0.149100
      4 C6          26.3380    64.0930    13.0430 c3         1 Z4R       0.146400
      5 O6          24.9370    63.9930    13.1340 oh         1 Z4R      -0.590800
      6 O5          26.1690    66.3320    12.3120 os         1 Z4R      -0.401600
      7 C1          26.3530    67.3560    11.3790 c6         1 Z4R       0.339900
      8 O1          25.7450    67.0910    10.1580 os         1 Z4R      -0.443600
      9 C1M         24.3380    66.9770    10.2190 c3         1 Z4R       0.126700
     10 C2          27.8370    67.5910    11.1040 c6         1 Z4R       0.138100
     11 O2          28.3840    68.1150    12.2840 oh         1 Z4R      -0.582800
     12 C3          28.4930    66.2690    10.7030 c6         1 Z4R      -0.021600
     13 S3          30.3140    66.4540    10.5850 sh         1 Z4R      -0.434900
     14 HO4         29.5780    63.9780    11.0520 ho         1 Z4R       0.424000
     15 H4          28.6670    65.4200    12.6730 h1         1 Z4R       0.062700
     16 H5          26.2150    64.7180    11.0040 h1         1 Z4R       0.067700
     17 H61         26.7970    63.1270    12.8090 h1         1 Z4R       0.036200
     18 H62         26.7870    64.4440    13.9830 h1         1 Z4R       0.036200
     19 HO6         24.7320    63.3060    13.7740 ho         1 Z4R       0.404000
     20 H1          25.9150    68.2480    11.8480 h2         1 Z4R       0.087700
     21 H51         23.9750    66.9160     9.1940 h1         1 Z4R       0.039367
     22 H52         24.0150    66.0820    10.7550 h1         1 Z4R       0.039367
     23 H53         23.8830    67.8510    10.6970 h1         1 Z4R       0.039367
     24 H2          27.9280    68.2990    10.2710 h1         1 Z4R       0.053700
     25 HO2         29.3170    68.2990    12.1180 ho         1 Z4R       0.424000
     26 H3          28.1330    65.9630     9.7190 h1         1 Z4R       0.095700
     27 HS3         30.3760    66.7740     9.2890 hs         1 Z4R       0.227800
@<TRIPOS>BOND
     1     1     2 1   
     2     1    14 1   
     3     2     3 1   
     4     2    12 1   
     5     2    15 1   
     6     3     4 1   
     7     3     6 1   
     8     3    16 1   
     9     4     5 1   
    10     4    17 1   
    11     4    18 1   
    12     5    19 1   
    13     6     7 1   
    14     7     8 1   
    15     7    10 1   
    16     7    20 1   
    17     8     9 1   
    18     9    21 1   
    19     9    22 1   
    20     9    23 1   
    21    10    11 1   
    22    10    12 1   
    23    10    24 1   
    24    11    25 1   
    25    12    13 1   
    26    12    26 1   
    27    13    27 1   
@<TRIPOS>SUBSTRUCTURE
     1 Z4R         1 TEMP              0 ****  ****    0 ROOT
