@<TRIPOS>MOLECULE
Z4R
   27    27     1     0     0
SMALL
No Charge or Current Charge


@<TRIPOS>ATOM
      1 O4          28.7790    63.8940    11.2960 oh         1 Z4R      -0.720000
      2 C4          28.2080    65.1420    11.7290 c6         1 Z4R       0.159300
      3 C5          26.6640    65.0420    11.9370 c6         1 Z4R       0.172300
      4 C6          26.2800    64.0110    13.0500 c3         1 Z4R       0.169600
      5 O6          24.8590    63.9300    13.2950 oh         1 Z4R      -0.713000
      6 O5          26.1190    66.3410    12.3080 os         1 Z4R      -0.448000
      7 C1          26.3410    67.3890    11.3320 c6         1 Z4R       0.386300
      8 O1          25.6680    67.0420    10.1030 os         1 Z4R      -0.490000
      9 C1M         24.2310    66.9950    10.1560 c3         1 Z4R       0.149900
     10 C2          27.8810    67.6030    11.0940 c6         1 Z4R       0.161300
     11 O2          28.5590    68.1190    12.2620 oh         1 Z4R      -0.705000
     12 C3          28.5340    66.2500    10.6870 c6         1 Z4R       0.026300
     13 S3          30.4050    66.4440    10.5320 sh         1 Z4R      -0.482800
     14 HO4         29.6960    64.1110    11.0020 ho         1 Z4R       0.523000
     15 H4          28.6550    65.4330    12.6930 h1         1 Z4R       0.062700
     16 H5          26.1950    64.7110    10.9990 h1         1 Z4R       0.067700
     17 H61         26.6620    63.0250    12.7520 h1         1 Z4R       0.036200
     18 H62         26.8040    64.2960    13.9730 h1         1 Z4R       0.036200
     19 HO6         24.7320    63.3090    14.0490 ho         1 Z4R       0.503000
     20 H1          25.9230    68.3320    11.7160 h2         1 Z4R       0.087700
     21 H51         23.8210    66.7480     9.1680 h1         1 Z4R       0.039367
     22 H52         23.8880    66.2320    10.8660 h1         1 Z4R       0.039367
     23 H53         23.8200    67.9650    10.4620 h1         1 Z4R       0.039367
     24 H2          27.9990    68.3090    10.2590 h1         1 Z4R       0.053700
     25 HO2         29.5160    67.9300    12.1140 ho         1 Z4R       0.523000
     26 H3          28.1210    65.9470     9.7120 h1         1 Z4R       0.095700
     27 HS3         30.3800    67.2830     9.4620 hs         1 Z4R       0.227800
@<TRIPOS>BOND
     1     1     2 1   
     2     1    14 1   
     3     2     3 1   
     4     2    12 1   
     5     2    15 1   
     6     3     4 1   
     7     3     6 1   
     8     3    16 1   
     9     4     5 1   
    10     4    17 1   
    11     4    18 1   
    12     5    19 1   
    13     6     7 1   
    14     7     8 1   
    15     7    10 1   
    16     7    20 1   
    17     8     9 1   
    18     9    21 1   
    19     9    22 1   
    20     9    23 1   
    21    10    11 1   
    22    10    12 1   
    23    10    24 1   
    24    11    25 1   
    25    12    13 1   
    26    12    26 1   
    27    13    27 1   
@<TRIPOS>SUBSTRUCTURE
     1 Z4R         1 TEMP              0 ****  ****    0 ROOT
