@<TRIPOS>MOLECULE
Z4S
   27    28     1     0     0
SMALL
No Charge or Current Charge


@<TRIPOS>ATOM
      1 O4          31.1340    15.8230    11.8800 oh         1 Z4S      -0.716000
      2 C4          30.8200    14.9950    13.0160 c6         1 Z4S       0.159300
      3 C5          30.4880    13.5210    12.6020 c5         1 Z4S       0.120300
      4 O5          29.0490    13.3510    12.5590 os         1 Z4S      -0.442000
      5 C6          30.8710    12.4900    13.7170 c5         1 Z4S       0.126600
      6 O6          29.6120    12.2060    14.3810 os         1 Z4S      -0.456000
      7 C1          28.6850    13.2220    13.9500 c5         1 Z4S       0.353300
      8 C2          28.9380    14.5740    14.7310 c6         1 Z4S       0.023700
      9 N2          27.6840    15.1250    15.3100 ns         1 Z4S      -0.519900
     10 C7          26.9110    14.5140    16.2720 c          1 Z4S       0.602100
     11 C8          25.6320    15.2550    16.6320 c3         1 Z4S      -0.182100
     12 O7          27.2320    13.4590    16.7950 o          1 Z4S      -0.582100
     13 C3          29.6180    15.6190    13.7970 c6         1 Z4S       0.123300
     14 O3          30.0400    16.7900    14.5200 oh         1 Z4S      -0.658000
     15 HO3         29.3760    16.9450    15.2290 ho         1 Z4S       0.454000
     16 H4          31.6900    14.9700    13.6890 h1         1 Z4S       0.056700
     17 H5          30.9420    13.2810    11.6300 h1         1 Z4S       0.113700
     18 H61         31.2730    11.5590    13.2950 h1         1 Z4S       0.063200
     19 H62         31.5950    12.8880    14.4400 h1         1 Z4S       0.063200
     20 H1          27.6490    12.8720    14.0570 h2         1 Z4S       0.107700
     21 H2          29.6210    14.3550    15.5660 h1         1 Z4S       0.117700
     22 HN2         27.2990    15.9760    14.9130 hn         1 Z4S       0.310500
     23 H81         25.0480    14.7380    17.4020 hc         1 Z4S       0.062367
     24 H82         25.8840    16.2770    16.9340 hc         1 Z4S       0.062367
     25 H83         25.0450    15.4190    15.7210 hc         1 Z4S       0.062367
     26 H3          28.8620    15.9130    13.0520 h1         1 Z4S       0.049700
     27 HO4         31.1370    16.7480    12.2250 ho         1 Z4S       0.522000
@<TRIPOS>BOND
     1     1     2 1   
     2     1    27 1   
     3     2     3 1   
     4     2    13 1   
     5     2    16 1   
     6     3     4 1   
     7     3     5 1   
     8     3    17 1   
     9     4     7 1   
    10     5     6 1   
    11     5    18 1   
    12     5    19 1   
    13     6     7 1   
    14     7     8 1   
    15     7    20 1   
    16     8     9 1   
    17     8    13 1   
    18     8    21 1   
    19     9    10 1   
    20     9    22 1   
    21    10    11 1   
    22    10    12 2   
    23    11    23 1   
    24    11    24 1   
    25    11    25 1   
    26    13    14 1   
    27    13    26 1   
    28    14    15 1   
@<TRIPOS>SUBSTRUCTURE
     1 Z4S         1 TEMP              0 ****  ****    0 ROOT
