@<TRIPOS>MOLECULE
Z4S
   27    28     1     0     0
SMALL
abcg2


@<TRIPOS>ATOM
      1 O4          31.2610    15.8900    12.2750 oh         1 Z4S      -0.716000
      2 C4          30.8070    14.9910    13.2580 c6         1 Z4S       0.159300
      3 C5          30.4590    13.6570    12.5730 c5         1 Z4S       0.120300
      4 O5          29.0480    13.4940    12.4980 os         1 Z4S      -0.442000
      5 C6          30.8450    12.4330    13.4080 c5         1 Z4S       0.126600
      6 O6          29.6840    12.1930    14.1920 os         1 Z4S      -0.456000
      7 C1          28.7310    13.1550    13.8170 c5         1 Z4S       0.353300
      8 C2          28.8270    14.4100    14.7230 c6         1 Z4S       0.023700
      9 N2          27.5320    14.8820    15.1460 ns         1 Z4S      -0.519900
     10 C7          27.0900    14.8610    16.4240 c          1 Z4S       0.602100
     11 C8          25.6870    15.3920    16.5980 c3         1 Z4S      -0.182100
     12 O7          27.7630    14.4530    17.3560 o          1 Z4S      -0.582100
     13 C3          29.5720    15.5270    13.9790 c6         1 Z4S       0.123300
     14 O3          29.9880    16.5540    14.8440 oh         1 Z4S      -0.658000
     15 HO3         29.2180    17.0710    15.1010 ho         1 Z4S       0.454000
     16 H4          31.5930    14.8150    14.0060 h1         1 Z4S       0.056700
     17 H5          30.8740    13.6270    11.5660 h1         1 Z4S       0.113700
     18 H61         31.0520    11.5670    12.7740 h1         1 Z4S       0.063200
     19 H62         31.7140    12.6100    14.0450 h1         1 Z4S       0.063200
     20 H1          27.7310    12.7150    13.8500 h2         1 Z4S       0.107700
     21 H2          29.3810    14.1430    15.6240 h1         1 Z4S       0.117700
     22 HN2         26.9030    15.2190    14.4320 hn         1 Z4S       0.310500
     23 H81         25.3880    15.3360    17.6410 hc         1 Z4S       0.062367
     24 H82         25.6220    16.4300    16.2700 hc         1 Z4S       0.062367
     25 H83         24.9790    14.8180    15.9980 hc         1 Z4S       0.062367
     26 H3          28.8950    15.9230    13.2080 h1         1 Z4S       0.049700
     27 HO4         31.4890    16.7200    12.7080 ho         1 Z4S       0.522000
@<TRIPOS>BOND
     1     1     2 1   
     2     1    27 1   
     3     2     3 1   
     4     2    13 1   
     5     2    16 1   
     6     3     4 1   
     7     3     5 1   
     8     3    17 1   
     9     4     7 1   
    10     5     6 1   
    11     5    18 1   
    12     5    19 1   
    13     6     7 1   
    14     7     8 1   
    15     7    20 1   
    16     8     9 1   
    17     8    13 1   
    18     8    21 1   
    19     9    10 1   
    20     9    22 1   
    21    10    11 1   
    22    10    12 2   
    23    11    23 1   
    24    11    24 1   
    25    11    25 1   
    26    13    14 1   
    27    13    26 1   
    28    14    15 1   
@<TRIPOS>SUBSTRUCTURE
     1 Z4S         1 TEMP              0 ****  ****    0 ROOT
