@<TRIPOS>MOLECULE
Z4U
   23    23     1     0     0
SMALL
No Charge or Current Charge


@<TRIPOS>ATOM
      1 C1          21.0700    23.2420     9.4830 c6         1 Z4U       0.382300
      2 O1          21.9350    22.6310     8.5010 os         1 Z4U      -0.460000
      3 C6          21.5250    22.7530     7.1280 c3         1 Z4U       0.148900
      4 C2          21.7070    23.2410    10.9200 c6         1 Z4U       0.165300
      5 O2          23.0030    23.8810    10.9760 oh         1 Z4U      -0.697000
      6 C3          21.8210    21.7790    11.4400 c6         1 Z4U       0.147300
      7 O3          22.3440    21.7560    12.7810 oh         1 Z4U      -0.668000
      8 C4          20.4350    21.0830    11.3870 c6         1 Z4U       0.021300
      9 S4          20.5960    19.2930    11.9390 sh         1 Z4U      -0.452800
     10 C5          19.8710    21.1620     9.9440 c6         1 Z4U       0.167600
     11 O5          19.8010    22.5410     9.5050 os         1 Z4U      -0.475000
     12 H1          20.8930    24.2900     9.1950 h2         1 Z4U       0.079700
     13 H21         22.2610    22.2770     6.4670 h1         1 Z4U       0.034033
     14 H22         20.5550    22.2680     6.9620 h1         1 Z4U       0.034033
     15 H23         21.4400    23.8090     6.8400 h1         1 Z4U       0.034033
     16 H2          21.0110    23.7790    11.5810 h1         1 Z4U       0.048700
     17 HO2         23.4150    23.5290    11.8020 ho         1 Z4U       0.520000
     18 H3          22.4990    21.2290    10.7680 h1         1 Z4U       0.073700
     19 HO3         22.1810    20.8440    13.1150 ho         1 Z4U       0.465000
     20 H4          19.7420    21.6070    12.0620 h1         1 Z4U       0.081700
     21 H51         20.5040    20.5860     9.2530 h1         1 Z4U       0.065200
     22 H52         18.8610    20.7300     9.9150 h1         1 Z4U       0.065200
     23 HS4         19.2760    18.9890    11.8440 hs         1 Z4U       0.219800
@<TRIPOS>BOND
     1     1     2 1   
     2     1     4 1   
     3     1    11 1   
     4     1    12 1   
     5     2     3 1   
     6     3    13 1   
     7     3    14 1   
     8     3    15 1   
     9     4     5 1   
    10     4     6 1   
    11     4    16 1   
    12     5    17 1   
    13     6     7 1   
    14     6     8 1   
    15     6    18 1   
    16     7    19 1   
    17     8     9 1   
    18     8    10 1   
    19     8    20 1   
    20     9    23 1   
    21    10    11 1   
    22    10    21 1   
    23    10    22 1   
@<TRIPOS>SUBSTRUCTURE
     1 Z4U         1 TEMP              0 ****  ****    0 ROOT
