@<TRIPOS>MOLECULE
Z4U
   23    23     1     0     0
SMALL
abcg2


@<TRIPOS>ATOM
      1 C1          21.0680    23.1870     9.4950 c6         1 Z4U       0.382300
      2 O1          21.9500    22.6120     8.5910 os         1 Z4U      -0.460000
      3 C6          21.6010    22.7940     7.2340 c3         1 Z4U       0.148900
      4 C2          21.6960    23.1210    10.8860 c6         1 Z4U       0.165300
      5 O2          22.9480    23.7490    10.8290 oh         1 Z4U      -0.697000
      6 C3          21.7830    21.6750    11.3690 c6         1 Z4U       0.147300
      7 O3          22.2720    21.6990    12.6850 oh         1 Z4U      -0.668000
      8 C4          20.3940    21.0470    11.2800 c6         1 Z4U       0.021300
      9 S4          20.5050    19.2760    11.7200 sh         1 Z4U      -0.452800
     10 C5          19.8230    21.2070     9.8790 c6         1 Z4U       0.167600
     11 O5          19.8100    22.5700     9.4940 os         1 Z4U      -0.475000
     12 H1          20.8690    24.2340     9.2260 h2         1 Z4U       0.079700
     13 H21         22.4550    22.4840     6.6340 h1         1 Z4U       0.034033
     14 H22         20.7370    22.1940     6.9390 h1         1 Z4U       0.034033
     15 H23         21.3820    23.8440     7.0120 h1         1 Z4U       0.034033
     16 H2          21.0130    23.6590    11.5620 h1         1 Z4U       0.048700
     17 HO2         23.2830    23.8310    11.7270 ho         1 Z4U       0.520000
     18 H3          22.4660    21.1220    10.7070 h1         1 Z4U       0.073700
     19 HO3         22.3350    20.7880    12.9950 ho         1 Z4U       0.465000
     20 H4          19.7380    21.5290    12.0080 h1         1 Z4U       0.081700
     21 H51         20.3920    20.5960     9.1690 h1         1 Z4U       0.065200
     22 H52         18.7890    20.8650     9.8510 h1         1 Z4U       0.065200
     23 HS4         19.4350    19.2160    12.5180 hs         1 Z4U       0.219800
@<TRIPOS>BOND
     1     1     2 1   
     2     1     4 1   
     3     1    11 1   
     4     1    12 1   
     5     2     3 1   
     6     3    13 1   
     7     3    14 1   
     8     3    15 1   
     9     4     5 1   
    10     4     6 1   
    11     4    16 1   
    12     5    17 1   
    13     6     7 1   
    14     6     8 1   
    15     6    18 1   
    16     7    19 1   
    17     8     9 1   
    18     8    10 1   
    19     8    20 1   
    20     9    23 1   
    21    10    11 1   
    22    10    21 1   
    23    10    22 1   
@<TRIPOS>SUBSTRUCTURE
     1 Z4U         1 TEMP              0 ****  ****    0 ROOT
