@<TRIPOS>MOLECULE
Z4V
   20    20     1     0     0
SMALL
No Charge or Current Charge


@<TRIPOS>ATOM
      1 C1           2.7550    -0.3420    -3.5310 c6         1 Z4V       0.402300
      2 C2           3.4090     0.8480    -4.3260 c6         1 Z4V       0.148300
      3 C3           3.7530     0.3860    -5.7740 c6         1 Z4V       0.148300
      4 C4           2.5370    -0.3140    -6.4490 c6         1 Z4V       0.025300
      5 C5           1.9300    -1.4020    -5.5220 c6         1 Z4V       0.179600
      6 O1           2.2310     0.0680    -2.2830 oh         1 Z4V      -0.689000
      7 O2           4.6140     1.3460    -3.7020 oh         1 Z4V      -0.686000
      8 O3           4.8940    -0.4930    -5.7570 oh         1 Z4V      -0.704000
      9 S4           3.0740    -1.0780    -8.0840 sh         1 Z4V      -0.441800
     10 O5           1.6100    -0.8360    -4.2310 os         1 Z4V      -0.492000
     11 H1           3.4850    -1.1540    -3.3890 h2         1 Z4V       0.049700
     12 HO1          1.2980    -0.2300    -2.3420 ho         1 Z4V       0.518000
     13 H2           2.6640     1.6550    -4.3920 h1         1 Z4V       0.053700
     14 HO2          5.3290     0.7990    -4.1090 ho         1 Z4V       0.503000
     15 H3           3.9950     1.2790    -6.3690 h1         1 Z4V       0.043700
     16 HO3          4.9070    -0.9190    -6.6480 ho         1 Z4V       0.515000
     17 H4           1.7620     0.4410    -6.6470 h1         1 Z4V       0.079700
     18 HS4          1.8400    -1.5000    -8.4620 hs         1 Z4V       0.215800
     19 H51          2.6370    -2.2340    -5.3900 h1         1 Z4V       0.064200
     20 H52          1.0120    -1.8070    -5.9710 h1         1 Z4V       0.064200
@<TRIPOS>BOND
     1     1     2 1   
     2     1     6 1   
     3     1    10 1   
     4     1    11 1   
     5     2     3 1   
     6     2     7 1   
     7     2    13 1   
     8     3     4 1   
     9     3     8 1   
    10     3    15 1   
    11     4     5 1   
    12     4     9 1   
    13     4    17 1   
    14     5    10 1   
    15     5    19 1   
    16     5    20 1   
    17     6    12 1   
    18     7    14 1   
    19     8    16 1   
    20     9    18 1   
@<TRIPOS>SUBSTRUCTURE
     1 Z4V         1 TEMP              0 ****  ****    0 ROOT
