@<TRIPOS>MOLECULE
Z4V
   20    20     1     0     0
SMALL
abcg2


@<TRIPOS>ATOM
      1 C1           2.6580    -0.3020    -3.5950 c6         1 Z4V       0.402300
      2 C2           3.4210     0.7170    -4.4360 c6         1 Z4V       0.148300
      3 C3           3.7840     0.1200    -5.8020 c6         1 Z4V       0.148300
      4 C4           2.5170    -0.4230    -6.4620 c6         1 Z4V       0.025300
      5 C5           1.7870    -1.3620    -5.5120 c6         1 Z4V       0.179600
      6 O1           2.2580     0.3010    -2.4220 oh         1 Z4V      -0.689000
      7 O2           4.5530     1.1210    -3.7180 oh         1 Z4V      -0.686000
      8 O3           4.7320    -0.9060    -5.6220 oh         1 Z4V      -0.704000
      9 S4           2.9820    -1.3000    -7.9920 sh         1 Z4V      -0.441800
     10 O5           1.5010    -0.7070    -4.2960 os         1 Z4V      -0.492000
     11 H1           3.2920    -1.1830    -3.4010 h2         1 Z4V       0.049700
     12 HO1          2.0140    -0.3770    -1.7840 ho         1 Z4V       0.518000
     13 H2           2.7390     1.5600    -4.6240 h1         1 Z4V       0.053700
     14 HO2          5.0040     1.8080    -4.2200 ho         1 Z4V       0.503000
     15 H3           4.1950     0.9220    -6.4300 h1         1 Z4V       0.043700
     16 HO3          5.3420    -0.9010    -6.3650 ho         1 Z4V       0.515000
     17 H4           1.8710     0.4150    -6.7330 h1         1 Z4V       0.079700
     18 HS4          1.8620    -1.0500    -8.6770 hs         1 Z4V       0.215800
     19 H51          2.3870    -2.2660    -5.3460 h1         1 Z4V       0.064200
     20 H52          0.8340    -1.6730    -5.9410 h1         1 Z4V       0.064200
@<TRIPOS>BOND
     1     1     2 1   
     2     1     6 1   
     3     1    10 1   
     4     1    11 1   
     5     2     3 1   
     6     2     7 1   
     7     2    13 1   
     8     3     4 1   
     9     3     8 1   
    10     3    15 1   
    11     4     5 1   
    12     4     9 1   
    13     4    17 1   
    14     5    10 1   
    15     5    19 1   
    16     5    20 1   
    17     6    12 1   
    18     7    14 1   
    19     8    16 1   
    20     9    18 1   
@<TRIPOS>SUBSTRUCTURE
     1 Z4V         1 TEMP              0 ****  ****    0 ROOT
