@<TRIPOS>MOLECULE
Z4W
   20    20     1     0     0
SMALL
bcc


@<TRIPOS>ATOM
      1 C1           3.6890     0.3570    -8.9120 c6         1 Z4W       0.366900
      2 C2           4.1060     0.0210   -10.3430 c6         1 Z4W       0.052100
      3 C3           4.7750     1.2510   -10.9610 c6         1 Z4W       0.066100
      4 C4           3.8700     2.4690   -10.8380 c6         1 Z4W       0.119100
      5 C5           3.4510     2.6310    -9.3810 c6         1 Z4W       0.140400
      6 O1           2.9550    -0.6510    -8.3020 oh         1 Z4W      -0.560800
      7 O2           2.9720    -0.3740   -11.0700 oh         1 Z4W      -0.559800
      8 O3           5.0510     1.0500   -12.3310 oh         1 Z4W      -0.603800
      9 O4           4.5270     3.6560   -11.2120 oh         1 Z4W      -0.595800
     10 O5           2.8390     1.4640    -8.8860 os         1 Z4W      -0.371600
     11 H1           4.6130     0.5810    -8.3450 h2         1 Z4W       0.012700
     12 HO1          3.5060    -1.4360    -8.2260 ho         1 Z4W       0.419000
     13 H2           4.8520    -0.7900   -10.2940 h1         1 Z4W       0.025700
     14 HO2          3.2200    -0.3900   -12.0010 ho         1 Z4W       0.412000
     15 H3           5.6990     1.4580   -10.4010 h1         1 Z4W       0.047700
     16 HO3          5.8380     0.5010   -12.4130 ho         1 Z4W       0.412000
     17 H4           2.9710     2.3080   -11.4490 h1         1 Z4W       0.068700
     18 HO4          4.7940     3.5750   -12.1330 ho         1 Z4W       0.421000
     19 H51          2.7250     3.4390    -9.2810 h1         1 Z4W       0.064200
     20 H52          4.3320     2.9000    -8.7790 h1         1 Z4W       0.064200
@<TRIPOS>BOND
     1     1     2 1   
     2     1     6 1   
     3     1    10 1   
     4     1    11 1   
     5     2     3 1   
     6     2     7 1   
     7     2    13 1   
     8     3     4 1   
     9     3     8 1   
    10     3    15 1   
    11     4     5 1   
    12     4     9 1   
    13     4    17 1   
    14     5    10 1   
    15     5    19 1   
    16     5    20 1   
    17     6    12 1   
    18     7    14 1   
    19     8    16 1   
    20     9    18 1   
@<TRIPOS>SUBSTRUCTURE
     1 Z4W         1 TEMP              0 ****  ****    0 ROOT
