@<TRIPOS>MOLECULE
Z4W
   20    20     1     0     0
SMALL
No Charge or Current Charge


@<TRIPOS>ATOM
      1 C1           3.8340     0.3800    -8.7630 c6         1 Z4W       0.413300
      2 C2           4.2770     0.0000   -10.2190 c6         1 Z4W       0.075300
      3 C3           4.8100     1.2730   -10.9400 c6         1 Z4W       0.089300
      4 C4           3.7750     2.4370   -10.8470 c6         1 Z4W       0.142300
      5 C5           3.3710     2.6680    -9.3630 c6         1 Z4W       0.163600
      6 O1           3.1790    -0.7350    -8.1900 oh         1 Z4W      -0.683000
      7 O2           3.1850    -0.5530   -10.9870 oh         1 Z4W      -0.682000
      8 O3           5.1080     0.9820   -12.3230 oh         1 Z4W      -0.726000
      9 O4           4.3290     3.6210   -11.4470 oh         1 Z4W      -0.718000
     10 O5           2.8650     1.4400    -8.7890 os         1 Z4W      -0.418000
     11 H1           4.6990     0.6760    -8.1510 h2         1 Z4W       0.012700
     12 HO1          2.6750    -1.0790    -8.9630 ho         1 Z4W       0.518000
     13 H2           5.0950    -0.7320   -10.1540 h1         1 Z4W       0.025700
     14 HO2          3.4080    -0.3320   -11.9240 ho         1 Z4W       0.511000
     15 H3           5.7270     1.5940   -10.4200 h1         1 Z4W       0.047700
     16 HO3          5.9700     0.4970   -12.3440 ho         1 Z4W       0.511000
     17 H4           2.8670     2.1380   -11.3930 h1         1 Z4W       0.068700
     18 HO4          4.7920     3.2910   -12.2550 ho         1 Z4W       0.520000
     19 H51          2.5850     3.4350    -9.3070 h1         1 Z4W       0.064200
     20 H52          4.2340     3.0180    -8.7780 h1         1 Z4W       0.064200
@<TRIPOS>BOND
     1     1     2 1   
     2     1     6 1   
     3     1    10 1   
     4     1    11 1   
     5     2     3 1   
     6     2     7 1   
     7     2    13 1   
     8     3     4 1   
     9     3     8 1   
    10     3    15 1   
    11     4     5 1   
    12     4     9 1   
    13     4    17 1   
    14     5    10 1   
    15     5    19 1   
    16     5    20 1   
    17     6    12 1   
    18     7    14 1   
    19     8    16 1   
    20     9    18 1   
@<TRIPOS>SUBSTRUCTURE
     1 Z4W         1 TEMP              0 ****  ****    0 ROOT
