@<TRIPOS>MOLECULE
Z4X
   29    29     1     0     0
SMALL
No Charge or Current Charge


@<TRIPOS>ATOM
      1 C10         24.9750   -46.7080    41.7400 ca         1 Z4X      -0.134600
      2 C15         24.6390   -48.2690    39.2630 c3         1 Z4X       0.086300
      3 C01         29.1560   -44.4400    41.7850 c3         1 Z4X      -0.093100
      4 C02         27.6730   -44.1080    42.0120 c3         1 Z4X       0.163600
      5 O03         26.9270   -45.3230    41.8260 os         1 Z4X      -0.362100
      6 C04         25.5470   -45.4300    41.9590 ca         1 Z4X       0.099100
      7 C05         24.6860   -44.3310    42.2590 ca         1 Z4X       0.142000
      8 F06         25.1520   -43.0790    42.4740 f          1 Z4X      -0.169000
      9 C07         23.2970   -44.5190    42.3360 ca         1 Z4X      -0.132000
     10 C08         22.7400   -45.7860    42.1220 ca         1 Z4X      -0.097000
     11 C09         23.5740   -46.8740    41.8280 ca         1 Z4X      -0.089000
     12 C11         25.8510   -47.9060    41.4470 c          1 Z4X       0.627700
     13 O12         26.7980   -48.1970    42.1700 o          1 Z4X      -0.597100
     14 N13         25.4640   -48.7650    40.3890 n          1 Z4X      -0.396800
     15 C14         26.1830   -50.0390    40.1720 c3         1 Z4X       0.086300
     16 H1          23.5830   -48.5050    39.4440 h1         1 Z4X       0.043367
     17 H2          24.7540   -47.1830    39.1510 h1         1 Z4X       0.043367
     18 H3          24.9520   -48.7450    38.3250 h1         1 Z4X       0.043367
     19 H4          29.7700   -43.5420    41.9170 hc         1 Z4X       0.046367
     20 H5          29.4960   -45.1980    42.5020 hc         1 Z4X       0.046367
     21 H6          29.3160   -44.8210    40.7690 hc         1 Z4X       0.046367
     22 H7          27.3610   -43.3420    41.2900 h1         1 Z4X       0.042700
     23 H8          27.5410   -43.7190    43.0300 h1         1 Z4X       0.042700
     24 H9          22.6510   -43.6740    42.5650 ha         1 Z4X       0.134000
     25 H10         21.6630   -45.9280    42.1890 ha         1 Z4X       0.122000
     26 H11         23.1300   -47.8570    41.6870 ha         1 Z4X       0.127000
     27 H12         26.2660   -50.5890    41.1180 h1         1 Z4X       0.043367
     28 H13         25.6400   -50.6650    39.4520 h1         1 Z4X       0.043367
     29 H14         27.1890   -49.8350    39.7830 h1         1 Z4X       0.043367
@<TRIPOS>BOND
     1     1     6 ar  
     2     1    11 ar  
     3     1    12 1   
     4     2    14 1   
     5     2    16 1   
     6     2    17 1   
     7     2    18 1   
     8     3     4 1   
     9     3    19 1   
    10     3    20 1   
    11     3    21 1   
    12     4     5 1   
    13     4    22 1   
    14     4    23 1   
    15     5     6 1   
    16     6     7 ar  
    17     7     8 1   
    18     7     9 ar  
    19     9    10 ar  
    20     9    24 1   
    21    10    11 ar  
    22    10    25 1   
    23    11    26 1   
    24    12    13 2   
    25    12    14 1   
    26    14    15 1   
    27    15    27 1   
    28    15    28 1   
    29    15    29 1   
@<TRIPOS>SUBSTRUCTURE
     1 Z4X         1 TEMP              0 ****  ****    0 ROOT
