@<TRIPOS>MOLECULE
Z4X
   29    29     1     0     0
SMALL
abcg2


@<TRIPOS>ATOM
      1 C10         24.8020   -46.6260    41.7650 ca         1 Z4X      -0.134600
      2 C15         25.0180   -48.0510    39.2900 c3         1 Z4X       0.086300
      3 C01         28.8850   -44.8070    41.5240 c3         1 Z4X      -0.093100
      4 C02         27.5070   -44.7540    42.1340 c3         1 Z4X       0.163600
      5 O03         26.5610   -45.1620    41.1350 os         1 Z4X      -0.362100
      6 C04         25.2920   -45.3390    41.5700 ca         1 Z4X       0.099100
      7 C05         24.4330   -44.2670    41.7840 ca         1 Z4X       0.142000
      8 F06         24.8970   -43.0250    41.5810 f          1 Z4X      -0.169000
      9 C07         23.1250   -44.4460    42.1840 ca         1 Z4X      -0.132000
     10 C08         22.6520   -45.7370    42.3730 ca         1 Z4X      -0.097000
     11 C09         23.4850   -46.8260    42.1600 ca         1 Z4X      -0.089000
     12 C11         25.7580   -47.7770    41.6310 c          1 Z4X       0.627700
     13 O12         26.4790   -48.0620    42.5780 o          1 Z4X      -0.597100
     14 N13         25.7440   -48.4570    40.4740 n          1 Z4X      -0.396800
     15 C14         26.6270   -49.5900    40.2880 c3         1 Z4X       0.086300
     16 H1          24.3770   -47.1970    39.4840 h1         1 Z4X       0.043367
     17 H2          25.7130   -47.7820    38.4910 h1         1 Z4X       0.043367
     18 H3          24.3940   -48.8720    38.9340 h1         1 Z4X       0.043367
     19 H4          29.6210   -44.4870    42.2610 hc         1 Z4X       0.046367
     20 H5          29.1410   -45.8200    41.2110 hc         1 Z4X       0.046367
     21 H6          28.9660   -44.1450    40.6620 hc         1 Z4X       0.046367
     22 H7          27.2780   -43.7430    42.4790 h1         1 Z4X       0.042700
     23 H8          27.4410   -45.4240    42.9960 h1         1 Z4X       0.042700
     24 H9          22.4850   -43.5870    42.3390 ha         1 Z4X       0.134000
     25 H10         21.6270   -45.8910    42.6820 ha         1 Z4X       0.122000
     26 H11         23.1100   -47.8320    42.3000 ha         1 Z4X       0.127000
     27 H12         26.9240   -50.0090    41.2430 h1         1 Z4X       0.043367
     28 H13         26.1080   -50.3600    39.7170 h1         1 Z4X       0.043367
     29 H14         27.5240   -49.3030    39.7350 h1         1 Z4X       0.043367
@<TRIPOS>BOND
     1     1     6 ar  
     2     1    11 ar  
     3     1    12 1   
     4     2    14 1   
     5     2    16 1   
     6     2    17 1   
     7     2    18 1   
     8     3     4 1   
     9     3    19 1   
    10     3    20 1   
    11     3    21 1   
    12     4     5 1   
    13     4    22 1   
    14     4    23 1   
    15     5     6 1   
    16     6     7 ar  
    17     7     8 1   
    18     7     9 ar  
    19     9    10 ar  
    20     9    24 1   
    21    10    11 ar  
    22    10    25 1   
    23    11    26 1   
    24    12    13 2   
    25    12    14 1   
    26    14    15 1   
    27    15    27 1   
    28    15    28 1   
    29    15    29 1   
@<TRIPOS>SUBSTRUCTURE
     1 Z4X         1 TEMP              0 ****  ****    0 ROOT
