@<TRIPOS>MOLECULE
Z4Y
   24    24     1     0     0
SMALL
No Charge or Current Charge


@<TRIPOS>ATOM
      1 O1          30.0210    67.5470    15.5850 oh         1 Z4Y      -0.748000
      2 C1          30.1460    68.2930    16.8020 c6         1 Z4Y       0.403300
      3 O5          28.8790    68.2140    17.4890 os         1 Z4Y      -0.416000
      4 C5          28.4840    66.8800    17.9070 c6         1 Z4Y       0.186300
      5 C6          27.0710    66.9910    18.5490 c3         1 Z4Y       0.087600
      6 S1          26.8700    68.0890    20.0410 sh         1 Z4Y      -0.422800
      7 C4          29.5480    66.2840    18.8820 c6         1 Z4Y       0.144300
      8 O4          29.2380    64.9340    19.2780 oh         1 Z4Y      -0.722000
      9 C3          30.9560    66.3070    18.2110 c6         1 Z4Y       0.095300
     10 O3          31.9560    65.8430    19.1470 oh         1 Z4Y      -0.729000
     11 C2          31.3080    67.7410    17.7140 c6         1 Z4Y       0.080300
     12 O2          31.5490    68.5630    18.8740 oh         1 Z4Y      -0.695000
     13 HO1         30.8010    67.7940    15.0380 ho         1 Z4Y       0.519000
     14 H1          30.3560    69.3500    16.5690 h2         1 Z4Y       0.088700
     15 H5          28.3990    66.2320    17.0230 h1         1 Z4Y       0.066700
     16 H61         26.3800    67.3500    17.7750 h1         1 Z4Y       0.077200
     17 H62         26.7430    65.9820    18.8280 h1         1 Z4Y       0.077200
     18 H1S         25.5420    67.8720    20.2070 hs         1 Z4Y       0.192800
     19 H4          29.5830    66.9310    19.7720 h1         1 Z4Y       0.080700
     20 HO4         30.0900    64.5840    19.6360 ho         1 Z4Y       0.520000
     21 H3          30.9240    65.6390    17.3350 h1         1 Z4Y       0.058700
     22 HO3         32.7340    65.5360    18.6210 ho         1 Z4Y       0.510000
     23 H2          32.2270    67.6870    17.1110 h1         1 Z4Y       0.026700
     24 HO2         31.9130    67.9300    19.5410 ho         1 Z4Y       0.518000
@<TRIPOS>BOND
     1     1     2 1   
     2     1    13 1   
     3     2     3 1   
     4     2    11 1   
     5     2    14 1   
     6     3     4 1   
     7     4     5 1   
     8     4     7 1   
     9     4    15 1   
    10     5     6 1   
    11     5    16 1   
    12     5    17 1   
    13     6    18 1   
    14     7     8 1   
    15     7     9 1   
    16     7    19 1   
    17     8    20 1   
    18     9    10 1   
    19     9    11 1   
    20     9    21 1   
    21    10    22 1   
    22    11    12 1   
    23    11    23 1   
    24    12    24 1   
@<TRIPOS>SUBSTRUCTURE
     1 Z4Y         1 TEMP              0 ****  ****    0 ROOT
