@<TRIPOS>MOLECULE
Z4Y
   24    24     1     0     0
SMALL
bcc


@<TRIPOS>ATOM
      1 O1          30.0910    67.6140    15.6220 oh         1 Z4Y      -0.625800
      2 C1          30.1310    68.2820    16.8520 c6         1 Z4Y       0.356900
      3 O5          28.8820    68.1570    17.4450 os         1 Z4Y      -0.369600
      4 C5          28.4990    66.8560    17.8550 c6         1 Z4Y       0.163100
      5 C6          27.1100    66.9890    18.4490 c3         1 Z4Y       0.039700
      6 S1          27.0720    68.2820    19.7410 sh         1 Z4Y      -0.374900
      7 C4          29.5220    66.2560    18.8180 c6         1 Z4Y       0.121100
      8 O4          29.1130    64.9340    19.0780 oh         1 Z4Y      -0.599800
      9 C3          30.9050    66.3060    18.1850 c6         1 Z4Y       0.072100
     10 O3          31.8300    65.8340    19.1440 oh         1 Z4Y      -0.606800
     11 C2          31.2400    67.7330    17.7520 c6         1 Z4Y       0.057100
     12 O2          31.3440    68.6010    18.8530 oh         1 Z4Y      -0.572800
     13 HO1         30.9500    67.6870    15.1910 ho         1 Z4Y       0.420000
     14 H1          30.2810    69.3610    16.7130 h2         1 Z4Y       0.088700
     15 H5          28.4160    66.1840    16.9890 h1         1 Z4Y       0.066700
     16 H61         26.3990    67.2460    17.6640 h1         1 Z4Y       0.077200
     17 H62         26.8000    66.0420    18.8840 h1         1 Z4Y       0.077200
     18 H1S         26.2340    67.6590    20.5760 hs         1 Z4Y       0.192800
     19 H4          29.5310    66.8540    19.7400 h1         1 Z4Y       0.080700
     20 HO4         29.7170    64.5570    19.7250 ho         1 Z4Y       0.421000
     21 H3          30.9020    65.6650    17.2940 h1         1 Z4Y       0.058700
     22 HO3         32.6350    65.5610    18.6930 ho         1 Z4Y       0.411000
     23 H2          32.1800    67.7210    17.1770 h1         1 Z4Y       0.026700
     24 HO2         31.9360    68.1910    19.4930 ho         1 Z4Y       0.419000
@<TRIPOS>BOND
     1     1     2 1   
     2     1    13 1   
     3     2     3 1   
     4     2    11 1   
     5     2    14 1   
     6     3     4 1   
     7     4     5 1   
     8     4     7 1   
     9     4    15 1   
    10     5     6 1   
    11     5    16 1   
    12     5    17 1   
    13     6    18 1   
    14     7     8 1   
    15     7     9 1   
    16     7    19 1   
    17     8    20 1   
    18     9    10 1   
    19     9    11 1   
    20     9    21 1   
    21    10    22 1   
    22    11    12 1   
    23    11    23 1   
    24    12    24 1   
@<TRIPOS>SUBSTRUCTURE
     1 Z4Y         1 TEMP              0 ****  ****    0 ROOT
