@<TRIPOS>MOLECULE
Z50
   45    46     1     0     0
SMALL
No Charge or Current Charge


@<TRIPOS>ATOM
      1 C1          -2.4610     5.3970    -1.1770 c3         1 Z50      -0.106400
      2 C2          -1.5510     4.3300    -0.6420 cc         1 Z50       0.200300
      3 C3          -1.7960     2.9930    -0.5480 cd         1 Z50      -0.212000
      4 N1          -0.6330     2.5420     0.0170 na         1 Z50       0.229000
      5 N2           0.2890     3.5280     0.2120 nd         1 Z50      -0.177800
      6 N3          -0.2960     4.6370    -0.1780 nc         1 Z50      -0.365000
      7 C4          -0.4730     1.1660     0.1860 ca         1 Z50      -0.006200
      8 C5          -1.4010     0.4270     0.9460 ca         1 Z50      -0.111000
      9 C6          -1.2440    -0.9610     1.1120 ca         1 Z50      -0.082300
     10 C7          -2.2640    -1.7530     1.9200 c3         1 Z50       0.120900
     11 S1          -3.9230    -1.7700     1.0880 ss         1 Z50      -0.468000
     12 C8          -3.5090    -2.6360    -0.5040 c3         1 Z50       0.070600
     13 CA          -3.2090    -1.6290    -1.6410 c3         1 Z50       0.151800
     14 N           -2.9560    -2.3000    -2.9380 n8         1 Z50      -1.003200
     15 C10         -0.1440    -1.6100     0.5200 ca         1 Z50      -0.089000
     16 C11          0.7930    -0.8820    -0.2360 ca         1 Z50      -0.050300
     17 C12          1.9840    -1.5930    -0.8640 c3         1 Z50       0.076900
     18 S2           3.2100    -2.1140     0.4210 ss         1 Z50      -0.413000
     19 C13          3.6440    -0.4670     1.1460 c3         1 Z50       0.105600
     20 C14          4.7600    -0.5760     2.2050 c3         1 Z50      -0.209400
     21 C            6.1150    -0.8470     1.5380 c          1 Z50       0.722000
     22 OXT          6.7430     0.1120     1.1140 o          1 Z50      -0.731500
     23 O            6.5130    -2.0000     1.4640 o          1 Z50      -0.731500
     24 C16          0.6230     0.5060    -0.4010 ca         1 Z50      -0.085000
     25 H1          -2.0120     5.8920    -2.0460 hc         1 Z50       0.043700
     26 H12         -3.4230     4.9730    -1.4880 hc         1 Z50       0.043700
     27 H3          -2.6580     6.1590    -0.4140 hc         1 Z50       0.043700
     28 H4          -2.6440     2.3780    -0.8180 h4         1 Z50       0.167000
     29 H5          -2.2490     0.9310     1.4060 ha         1 Z50       0.123000
     30 H6          -1.9200    -2.7860     2.0590 h1         1 Z50       0.078700
     31 H7          -2.3690    -1.2990     2.9140 h1         1 Z50       0.078700
     32 H8          -2.6500    -3.3010    -0.3500 h1         1 Z50       0.073200
     33 H9          -4.3690    -3.2520    -0.7950 h1         1 Z50       0.073200
     34 HA2         -4.0690    -0.9550    -1.7590 h1         1 Z50       0.039700
     35 HA3         -2.3320    -1.0200    -1.3820 h1         1 Z50       0.039700
     36 H           -2.7420    -1.5880    -3.6470 hn         1 Z50       0.396000
     37 H2          -2.0850    -2.8410    -2.8730 hn         1 Z50       0.396000
     38 H14         -0.0130    -2.6830     0.6470 ha         1 Z50       0.130000
     39 H15          1.6350    -2.4830    -1.4050 h1         1 Z50       0.071200
     40 H16          2.4810    -0.9340    -1.5880 h1         1 Z50       0.071200
     41 H17          3.9540     0.2150     0.3440 h1         1 Z50       0.045700
     42 H18          2.7440    -0.0520     1.6180 h1         1 Z50       0.045700
     43 H19          4.7760     0.4110     2.6820 hc         1 Z50       0.030200
     44 H20          4.4770    -1.3880     2.8860 hc         1 Z50       0.030200
     45 H22          1.3440     1.0740    -0.9860 ha         1 Z50       0.148000
@<TRIPOS>BOND
     1     1     2 1   
     2     1    25 1   
     3     1    26 1   
     4     1    27 1   
     5     2     3 2   
     6     2     6 1   
     7     3     4 1   
     8     3    28 1   
     9     4     5 1   
    10     4     7 1   
    11     5     6 2   
    12     7     8 ar  
    13     7    24 ar  
    14     8     9 ar  
    15     8    29 1   
    16     9    10 1   
    17     9    15 ar  
    18    10    11 1   
    19    10    30 1   
    20    10    31 1   
    21    11    12 1   
    22    12    13 1   
    23    12    32 1   
    24    12    33 1   
    25    13    14 1   
    26    13    34 1   
    27    13    35 1   
    28    14    36 1   
    29    14    37 1   
    30    15    16 ar  
    31    15    38 1   
    32    16    17 1   
    33    16    24 ar  
    34    17    18 1   
    35    17    39 1   
    36    17    40 1   
    37    18    19 1   
    38    19    20 1   
    39    19    41 1   
    40    19    42 1   
    41    20    21 1   
    42    20    43 1   
    43    20    44 1   
    44    21    22 1   
    45    21    23 1   
    46    24    45 1   
@<TRIPOS>SUBSTRUCTURE
     1 Z50         1 TEMP              0 ****  ****    0 ROOT
