@<TRIPOS>MOLECULE
Z50
   45    46     1     0     0
SMALL
abcg2


@<TRIPOS>ATOM
      1 C1          -2.3740     5.8560    -0.8110 c3         1 Z50      -0.106400
      2 C2          -1.5550     4.6410    -0.5560 cc         1 Z50       0.200300
      3 C3          -1.9500     3.3440    -0.3540 cd         1 Z50      -0.212000
      4 N1          -0.7960     2.6650    -0.1880 na         1 Z50       0.229000
      5 N2           0.2440     3.4800    -0.2760 nd         1 Z50      -0.177800
      6 N3          -0.2030     4.6660    -0.4970 nc         1 Z50      -0.365000
      7 C4          -0.6150     1.2840     0.0480 ca         1 Z50      -0.006200
      8 C5          -1.5280     0.5990     0.8260 ca         1 Z50      -0.111000
      9 C6          -1.3520    -0.7660     1.0500 ca         1 Z50      -0.082300
     10 C7          -2.3700    -1.5300     1.8380 c3         1 Z50       0.120900
     11 S1          -3.8960    -1.8610     0.8980 ss         1 Z50      -0.468000
     12 C8          -3.2530    -2.8760    -0.4660 c3         1 Z50       0.070600
     13 CA          -2.9480    -2.0750    -1.7230 c3         1 Z50       0.151800
     14 N           -2.3810    -2.9550    -2.7320 n8         1 Z50      -1.003200
     15 C10         -0.2510    -1.4070     0.5050 ca         1 Z50      -0.089000
     16 C11          0.6660    -0.7180    -0.2890 ca         1 Z50      -0.050300
     17 C12          1.8350    -1.4300    -0.9000 c3         1 Z50       0.076900
     18 S2           3.0100    -2.0640     0.3300 ss         1 Z50      -0.413000
     19 C13          3.5420    -0.5150     1.1170 c3         1 Z50       0.105600
     20 C14          4.6810    -0.8080     2.0790 c3         1 Z50      -0.209400
     21 C            5.9950    -1.2430     1.3900 c          1 Z50       0.722000
     22 OXT          6.2970    -0.6360     0.3440 o          1 Z50      -0.731500
     23 O            6.6540    -2.1360     1.9580 o          1 Z50      -0.731500
     24 C16          0.4790     0.6360    -0.5180 ca         1 Z50      -0.085000
     25 H1          -1.7350     6.7340    -0.8820 hc         1 Z50       0.043700
     26 H12         -2.9320     5.7720    -1.7440 hc         1 Z50       0.043700
     27 H3          -3.0950     6.0270    -0.0130 hc         1 Z50       0.043700
     28 H4          -2.9180     2.8730    -0.3420 h4         1 Z50       0.167000
     29 H5          -2.3740     1.1120     1.2670 ha         1 Z50       0.123000
     30 H6          -1.9590    -2.4780     2.1890 h1         1 Z50       0.078700
     31 H7          -2.6960    -0.9660     2.7130 h1         1 Z50       0.078700
     32 H8          -2.3630    -3.4010    -0.1080 h1         1 Z50       0.073200
     33 H9          -4.0040    -3.6370    -0.6810 h1         1 Z50       0.073200
     34 HA2         -3.8810    -1.6570    -2.1070 h1         1 Z50       0.039700
     35 HA3         -2.3070    -1.2220    -1.4680 h1         1 Z50       0.039700
     36 H           -2.2830    -2.4510    -3.6040 hn         1 Z50       0.396000
     37 H2          -1.4410    -3.2140    -2.4580 hn         1 Z50       0.396000
     38 H14         -0.1030    -2.4650     0.6910 ha         1 Z50       0.130000
     39 H15          1.5010    -2.3080    -1.4580 h1         1 Z50       0.071200
     40 H16          2.3600    -0.7780    -1.6000 h1         1 Z50       0.071200
     41 H17          3.8690     0.1780     0.3420 h1         1 Z50       0.045700
     42 H18          2.6920    -0.0720     1.6380 h1         1 Z50       0.045700
     43 H19          4.8830     0.1140     2.6370 hc         1 Z50       0.030200
     44 H20          4.3690    -1.5460     2.8210 hc         1 Z50       0.030200
     45 H22          1.1740     1.1840    -1.1410 ha         1 Z50       0.148000
@<TRIPOS>BOND
     1     1     2 1   
     2     1    25 1   
     3     1    26 1   
     4     1    27 1   
     5     2     3 2   
     6     2     6 1   
     7     3     4 1   
     8     3    28 1   
     9     4     5 1   
    10     4     7 1   
    11     5     6 2   
    12     7     8 ar  
    13     7    24 ar  
    14     8     9 ar  
    15     8    29 1   
    16     9    10 1   
    17     9    15 ar  
    18    10    11 1   
    19    10    30 1   
    20    10    31 1   
    21    11    12 1   
    22    12    13 1   
    23    12    32 1   
    24    12    33 1   
    25    13    14 1   
    26    13    34 1   
    27    13    35 1   
    28    14    36 1   
    29    14    37 1   
    30    15    16 ar  
    31    15    38 1   
    32    16    17 1   
    33    16    24 ar  
    34    17    18 1   
    35    17    39 1   
    36    17    40 1   
    37    18    19 1   
    38    19    20 1   
    39    19    41 1   
    40    19    42 1   
    41    20    21 1   
    42    20    43 1   
    43    20    44 1   
    44    21    22 1   
    45    21    23 1   
    46    24    45 1   
@<TRIPOS>SUBSTRUCTURE
     1 Z50         1 TEMP              0 ****  ****    0 ROOT
