@<TRIPOS>MOLECULE
Z57
   35    36     1     0     0
SMALL
abcg2


@<TRIPOS>ATOM
      1 C1           0.9030    -1.1230    -0.9390 ca         1 Z57       0.154100
      2 O1           0.4470    -2.1670    -1.6640 oh         1 Z57      -0.557100
      3 C2           0.0440    -0.2090    -0.3120 ca         1 Z57      -0.136300
      4 C3           0.6000     0.8220     0.4330 ca         1 Z57      -0.074000
      5 C4           1.9740     0.9950     0.5450 ca         1 Z57       0.086100
      6 O4           2.4820     2.0500     1.2400 oh         1 Z57      -0.544100
      7 C5           2.8040     0.0980    -0.1180 ca         1 Z57      -0.010900
      8 BR5          4.6710     0.3140    -0.0060 br         1 Z57      -0.082100
      9 C6           2.2800    -0.9550    -0.8490 ca         1 Z57      -0.118000
     10 C7          -1.4550    -0.3220    -0.4690 c6         1 Z57       0.222600
     11 C8          -2.0580    -1.3900     0.4520 c6         1 Z57       0.144300
     12 O2          -1.5240    -2.6350     0.0560 oh         1 Z57      -0.749000
     13 C9          -3.5740    -1.3830     0.3310 c6         1 Z57       0.103300
     14 O3          -4.0810    -2.3090     1.2660 oh         1 Z57      -0.668000
     15 C10         -4.1250     0.0220     0.5600 c6         1 Z57       0.111300
     16 O7          -5.5090     0.0690     0.3020 oh         1 Z57      -0.717000
     17 C11         -3.4220     0.9980    -0.3840 c6         1 Z57       0.171300
     18 O5          -2.0260     0.9240    -0.1770 os         1 Z57      -0.431000
     19 C12         -3.8450     2.4300    -0.1420 c3         1 Z57       0.172600
     20 O6          -3.2190     3.2570    -1.0940 oh         1 Z57      -0.705000
     21 HO1         -0.3350    -2.5400    -1.2100 ho         1 Z57       0.498000
     22 H3          -0.0410     1.5400     0.9260 ha         1 Z57       0.140000
     23 HO4          2.6140     1.8050     2.1640 ho         1 Z57       0.460000
     24 H6           2.9280    -1.6640    -1.3470 ha         1 Z57       0.144000
     25 H1          -1.6810    -0.6050    -1.5110 h1         1 Z57       0.061700
     26 H2          -1.7700    -1.1580     1.4870 h1         1 Z57       0.063700
     27 HO2         -1.7960    -3.3250     0.6710 ho         1 Z57       0.538000
     28 H7          -3.8320    -1.6850    -0.6960 h1         1 Z57       0.058700
     29 HO3         -4.9250    -2.6430     0.9500 ho         1 Z57       0.455000
     30 H4          -3.9060     0.3270     1.5950 h1         1 Z57       0.056700
     31 H8          -5.9790    -0.2450     1.0800 ho         1 Z57       0.512000
     32 H5          -3.6610     0.7210    -1.4250 h1         1 Z57       0.065700
     33 H9          -4.9360     2.4830    -0.2150 h1         1 Z57       0.033700
     34 H6'A        -3.5750     2.7120     0.8850 h1         1 Z57       0.033700
     35 HO6         -3.5490     4.1520    -0.9710 ho         1 Z57       0.506000
@<TRIPOS>BOND
     1     1     2 1   
     2     1     3 ar  
     3     1     9 ar  
     4     2    21 1   
     5     3     4 ar  
     6     3    10 1   
     7     4     5 ar  
     8     4    22 1   
     9     5     6 1   
    10     5     7 ar  
    11     6    23 1   
    12     7     8 1   
    13     7     9 ar  
    14     9    24 1   
    15    10    11 1   
    16    10    18 1   
    17    10    25 1   
    18    11    12 1   
    19    11    13 1   
    20    11    26 1   
    21    12    27 1   
    22    13    14 1   
    23    13    15 1   
    24    13    28 1   
    25    14    29 1   
    26    15    16 1   
    27    15    17 1   
    28    15    30 1   
    29    16    31 1   
    30    17    18 1   
    31    17    19 1   
    32    17    32 1   
    33    19    20 1   
    34    19    33 1   
    35    19    34 1   
    36    20    35 1   
@<TRIPOS>SUBSTRUCTURE
     1 Z57         1 TEMP              0 ****  ****    0 ROOT
