@<TRIPOS>MOLECULE
Z57
   35    36     1     0     0
SMALL
No Charge or Current Charge


@<TRIPOS>ATOM
      1 C1           1.0220    -1.1730    -0.9170 ca         1 Z57       0.154100
      2 O1           0.5270    -2.2660    -1.5610 oh         1 Z57      -0.557100
      3 C2           0.1510    -0.2330    -0.3160 ca         1 Z57      -0.136300
      4 C3           0.7200     0.8530     0.3960 ca         1 Z57      -0.074000
      5 C4           2.1160     1.0050     0.4890 ca         1 Z57       0.086100
      6 O4           2.6450     2.0640     1.1780 oh         1 Z57      -0.544100
      7 C5           2.9640     0.0690    -0.1350 ca         1 Z57      -0.010900
      8 Br5          4.8730     0.2420    -0.0360 br         1 Z57      -0.082100
      9 C6           2.4130    -1.0160    -0.8330 ca         1 Z57      -0.118000
     10 C7          -1.3850    -0.3660    -0.4720 c6         1 Z57       0.222600
     11 C8          -2.0060    -1.5210     0.3860 c6         1 Z57       0.144300
     12 O2          -1.5140    -2.8240     0.0080 oh         1 Z57      -0.749000
     13 C9          -3.5530    -1.5210     0.2310 c6         1 Z57       0.103300
     14 O3          -4.1430    -2.5390     1.0590 oh         1 Z57      -0.668000
     15 C10         -4.1460    -0.1250     0.5740 c6         1 Z57       0.111300
     16 O7          -5.5790    -0.1520     0.3880 oh         1 Z57      -0.717000
     17 C11         -3.4480     0.9470    -0.3260 c6         1 Z57       0.171300
     18 O5          -2.0120     0.8920    -0.1190 os         1 Z57      -0.431000
     19 C12         -3.9270     2.4050    -0.0210 c3         1 Z57       0.172600
     20 O6          -3.2440     3.4070    -0.8020 oh         1 Z57      -0.705000
     21 HO1         -0.2870    -2.5470    -1.0540 ho         1 Z57       0.498000
     22 H3           0.0800     1.5890     0.8770 ha         1 Z57       0.140000
     23 HO4          1.9130     2.6120     1.5360 ho         1 Z57       0.460000
     24 H6           3.0670    -1.7460    -1.3020 ha         1 Z57       0.144000
     25 H1          -1.6040    -0.5600    -1.5330 h1         1 Z57       0.061700
     26 H2          -1.7630    -1.3220     1.4410 h1         1 Z57       0.063700
     27 HO2         -2.1740    -3.4510     0.4030 ho         1 Z57       0.538000
     28 H7          -3.7860    -1.7280    -0.8250 h1         1 Z57       0.058700
     29 HO3         -5.1010    -2.3100     1.0970 ho         1 Z57       0.455000
     30 H4          -3.9070     0.1020     1.6250 h1         1 Z57       0.056700
     31 H8          -5.9770     0.4980     1.0150 ho         1 Z57       0.512000
     32 H5          -3.6620     0.7320    -1.3830 h1         1 Z57       0.065700
     33 H9          -5.0070     2.4600    -0.2120 h1         1 Z57       0.033700
     34 H6'A        -3.7760     2.5970     1.0500 h1         1 Z57       0.033700
     35 HO6         -3.5680     4.2850    -0.4920 ho         1 Z57       0.506000
@<TRIPOS>BOND
     1     1     2 1   
     2     1     3 ar  
     3     1     9 ar  
     4     2    21 1   
     5     3     4 ar  
     6     3    10 1   
     7     4     5 ar  
     8     4    22 1   
     9     5     6 1   
    10     5     7 ar  
    11     6    23 1   
    12     7     8 1   
    13     7     9 ar  
    14     9    24 1   
    15    10    11 1   
    16    10    18 1   
    17    10    25 1   
    18    11    12 1   
    19    11    13 1   
    20    11    26 1   
    21    12    27 1   
    22    13    14 1   
    23    13    15 1   
    24    13    28 1   
    25    14    29 1   
    26    15    16 1   
    27    15    17 1   
    28    15    30 1   
    29    16    31 1   
    30    17    18 1   
    31    17    19 1   
    32    17    32 1   
    33    19    20 1   
    34    19    33 1   
    35    19    34 1   
    36    20    35 1   
@<TRIPOS>SUBSTRUCTURE
     1 Z57         1 TEMP              0 ****  ****    0 ROOT
