@<TRIPOS>MOLECULE
Z59
   48    50     1     0     0
SMALL
bcc


@<TRIPOS>ATOM
      1 C1          -1.2020     0.2690    -0.8180 c          1 Z59       0.647100
      2 N2          -1.7930     1.1680    -0.0220 n          1 Z59      -0.468800
      3 C3           0.2170    -0.1940    -0.4760 c3         1 Z59       0.043100
      4 C4           0.1910    -1.0230     0.8270 c3         1 Z59       0.052100
      5 C5          -3.1630     1.6120    -0.2950 c5         1 Z59       0.161000
      6 C6           1.5760    -1.6380     1.0300 c          1 Z59       0.649100
      7 C7          -4.1860     0.5080    -0.2460 ca         1 Z59      -0.087300
      8 N8           2.5220    -0.7720     1.4310 ns         1 Z59      -0.574900
      9 S9           4.2620    -0.0500    -1.0650 ss         1 Z59      -0.047800
     10 C10          4.7390    -0.2420     0.5810 cc         1 Z59      -0.111400
     11 O11         -1.7560    -0.2200    -1.7930 o          1 Z59      -0.592100
     12 C12         -4.1050    -0.5160     0.6920 ca         1 Z59      -0.107500
     13 C13          5.6270     0.9320    -1.4070 cc         1 Z59      -0.118100
     14 O14          1.7730    -2.8190     0.8040 o          1 Z59      -0.584100
     15 C15          5.8940     0.4330     0.8360 cd         1 Z59      -0.143000
     16 C16          6.4080     1.1060    -0.3080 cd         1 Z59      -0.154000
     17 O17          0.7090    -0.9600    -1.5280 oh         1 Z59      -0.587800
     18 C18          3.9300    -1.0810     1.5180 c3         1 Z59       0.173300
     19 O19         -0.7850    -2.0140     0.7860 oh         1 Z59      -0.576800
     20 C20         -1.1350     1.9840     0.9970 c5         1 Z59       0.102000
     21 C21         -5.0980    -1.4820     0.7660 ca         1 Z59      -0.128500
     22 C23         -3.3950     2.6770     0.7830 c5         1 Z59      -0.090400
     23 C24         -5.2770     0.5480    -1.1060 ca         1 Z59      -0.107500
     24 C25         -2.0040     3.2330     1.0500 c5         1 Z59      -0.096400
     25 C26         -6.2770    -0.4130    -1.0290 ca         1 Z59      -0.128500
     26 C27         -6.1900    -1.4330    -0.0930 ca         1 Z59      -0.123000
     27 H3           0.8710     0.6770    -0.3340 h1         1 Z59       0.068700
     28 H4          -0.0350    -0.3660     1.6730 h1         1 Z59       0.076700
     29 H5          -3.1950     2.0800    -1.2860 h1         1 Z59       0.064700
     30 HN8          2.2520     0.1760     1.6400 hn         1 Z59       0.310500
     31 H12         -3.2560    -0.5720     1.3620 ha         1 Z59       0.132500
     32 H13          5.7710     1.3390    -2.3960 h4         1 Z59       0.168000
     33 H15          6.3610     0.4560     1.8110 ha         1 Z59       0.149000
     34 H16          7.3110     1.6980    -0.3050 ha         1 Z59       0.152000
     35 HO17        -0.0530    -1.1760    -2.0890 ho         1 Z59       0.444000
     36 H18          4.2900    -0.9180     2.5360 h1         1 Z59       0.071200
     37 H18A         4.0530    -2.1420     1.3020 h1         1 Z59       0.071200
     38 HO19        -0.4110    -2.7800     0.3310 ho         1 Z59       0.440000
     39 H20         -1.1320     1.4770     1.9660 h1         1 Z59       0.045200
     40 H20A        -0.1040     2.2090     0.7260 h1         1 Z59       0.045200
     41 H21         -5.0180    -2.2780     1.4960 ha         1 Z59       0.130000
     42 H23         -4.1120     3.4290     0.4550 hc         1 Z59       0.061700
     43 H23A        -3.7920     2.2110     1.6880 hc         1 Z59       0.061700
     44 H24         -5.3470     1.3350    -1.8480 ha         1 Z59       0.132500
     45 H25         -1.9240     3.7490     2.0050 hc         1 Z59       0.057200
     46 H25A        -1.7100     3.9300     0.2620 hc         1 Z59       0.057200
     47 H26         -7.1200    -0.3670    -1.7060 ha         1 Z59       0.130000
     48 H27         -6.9640    -2.1870    -0.0330 ha         1 Z59       0.129000
@<TRIPOS>BOND
     1     1     2 1   
     2     1     3 1   
     3     1    11 2   
     4     2     5 1   
     5     2    20 1   
     6     3     4 1   
     7     3    17 1   
     8     3    27 1   
     9     4     6 1   
    10     4    19 1   
    11     4    28 1   
    12     5     7 1   
    13     5    22 1   
    14     5    29 1   
    15     6     8 1   
    16     6    14 2   
    17     7    12 ar  
    18     7    23 ar  
    19     8    18 1   
    20     8    30 1   
    21     9    10 1   
    22     9    13 1   
    23    10    15 2   
    24    10    18 1   
    25    12    21 ar  
    26    12    31 1   
    27    13    16 2   
    28    13    32 1   
    29    15    16 1   
    30    15    33 1   
    31    16    34 1   
    32    17    35 1   
    33    18    36 1   
    34    18    37 1   
    35    19    38 1   
    36    20    24 1   
    37    20    39 1   
    38    20    40 1   
    39    21    26 ar  
    40    21    41 1   
    41    22    24 1   
    42    22    42 1   
    43    22    43 1   
    44    23    25 ar  
    45    23    44 1   
    46    24    45 1   
    47    24    46 1   
    48    25    26 ar  
    49    25    47 1   
    50    26    48 1   
@<TRIPOS>SUBSTRUCTURE
     1 Z59         1 TEMP              0 ****  ****    0 ROOT
