@<TRIPOS>MOLECULE
Z59
   48    50     1     0     0
SMALL
No Charge or Current Charge


@<TRIPOS>ATOM
      1 C1          -1.3520     0.0810    -1.3850 c          1 Z59       0.580100
      2 N2          -1.6260     1.0820    -0.4260 n          1 Z59      -0.401800
      3 C3          -0.0050    -0.7060    -1.2970 c3         1 Z59       0.066300
      4 C4           0.0970    -1.5560     0.0040 c3         1 Z59       0.075300
      5 C5          -2.9430     1.7500    -0.3290 c5         1 Z59       0.161000
      6 C6           1.5840    -1.8870     0.3420 c          1 Z59       0.582100
      7 C7          -4.0130     0.7240     0.0670 ca         1 Z59      -0.087300
      8 N8           2.1450    -1.1090     1.3340 ns         1 Z59      -0.507900
      9 S9           5.3230    -0.5890    -0.3580 ss         1 Z59       0.242000
     10 C10          4.3750    -0.1680     1.0680 cc         1 Z59      -0.256300
     11 O11         -2.1620    -0.1840    -2.2690 o          1 Z59      -0.592100
     12 C12         -3.7820    -0.2530     1.0620 ca         1 Z59      -0.089500
     13 C13          5.9080     1.0670    -0.4960 cc         1 Z59      -0.245000
     14 O14          2.2050    -2.7980    -0.1940 o          1 Z59      -0.584100
     15 C15          4.5210     1.1610     1.3800 cd         1 Z59      -0.125000
     16 C16          5.3880     1.8580     0.4970 cd         1 Z59      -0.136000
     17 O17          0.2080    -1.5430    -2.4680 oh         1 Z59      -0.650000
     18 C18          3.5350    -1.1940     1.7690 c3         1 Z59       0.173300
     19 O19         -0.7250    -2.7440    -0.1170 oh         1 Z59      -0.639000
     20 C20         -0.5720     1.8040     0.3250 c5         1 Z59       0.102000
     21 C21         -4.7820    -1.1810     1.4010 ca         1 Z59      -0.110500
     22 C23         -2.7350     2.7030     0.8810 c5         1 Z59      -0.090400
     23 C24         -5.2660     0.7470    -0.5800 ca         1 Z59      -0.089500
     24 C25         -1.2710     3.1500     0.6540 c5         1 Z59      -0.096400
     25 C26         -6.2670    -0.1810    -0.2400 ca         1 Z59      -0.110500
     26 C27         -6.0250    -1.1450     0.7510 ca         1 Z59      -0.105000
     27 H3           0.7850     0.0550    -1.2590 h1         1 Z59       0.068700
     28 H4          -0.2770    -0.9530     0.8410 h1         1 Z59       0.076700
     29 H5          -3.1880     2.2900    -1.2540 h1         1 Z59       0.064700
     30 HN8          1.5620    -0.3930     1.7510 hn         1 Z59       0.310500
     31 H12         -2.8250    -0.2960     1.5760 ha         1 Z59       0.114500
     32 H13          6.5870     1.3280    -1.2970 h4         1 Z59       0.150000
     33 H15          4.0220     1.6360     2.2200 ha         1 Z59       0.131000
     34 H16          5.6170     2.9150     0.5970 ha         1 Z59       0.134000
     35 HO17        -0.5910    -1.4220    -3.0360 ho         1 Z59       0.483000
     36 H18          3.5780    -1.0230     2.8530 h1         1 Z59       0.071200
     37 H18A         3.9310    -2.2010     1.5770 h1         1 Z59       0.071200
     38 HO19        -0.3790    -3.2280    -0.9020 ho         1 Z59       0.479000
     39 H20         -0.3090     1.2630     1.2430 h1         1 Z59       0.045200
     40 H20A         0.3400     1.9620    -0.2650 h1         1 Z59       0.045200
     41 H21         -4.5910    -1.9280     2.1690 ha         1 Z59       0.112000
     42 H23         -3.4420     3.5400     0.8780 hc         1 Z59       0.061700
     43 H23A        -2.8370     2.1920     1.8460 hc         1 Z59       0.061700
     44 H24         -5.4660     1.4880    -1.3500 ha         1 Z59       0.114500
     45 H25         -0.8350     3.6460     1.5290 hc         1 Z59       0.057200
     46 H25A        -1.1980     3.8480    -0.1890 hc         1 Z59       0.057200
     47 H26         -7.2290    -0.1510    -0.7470 ha         1 Z59       0.112000
     48 H27         -6.7990    -1.8640     1.0130 ha         1 Z59       0.111000
@<TRIPOS>BOND
     1     1     2 1   
     2     1     3 1   
     3     1    11 2   
     4     2     5 1   
     5     2    20 1   
     6     3     4 1   
     7     3    17 1   
     8     3    27 1   
     9     4     6 1   
    10     4    19 1   
    11     4    28 1   
    12     5     7 1   
    13     5    22 1   
    14     5    29 1   
    15     6     8 1   
    16     6    14 2   
    17     7    12 ar  
    18     7    23 ar  
    19     8    18 1   
    20     8    30 1   
    21     9    10 1   
    22     9    13 1   
    23    10    15 2   
    24    10    18 1   
    25    12    21 ar  
    26    12    31 1   
    27    13    16 2   
    28    13    32 1   
    29    15    16 1   
    30    15    33 1   
    31    16    34 1   
    32    17    35 1   
    33    18    36 1   
    34    18    37 1   
    35    19    38 1   
    36    20    24 1   
    37    20    39 1   
    38    20    40 1   
    39    21    26 ar  
    40    21    41 1   
    41    22    24 1   
    42    22    42 1   
    43    22    43 1   
    44    23    25 ar  
    45    23    44 1   
    46    24    45 1   
    47    24    46 1   
    48    25    26 ar  
    49    25    47 1   
    50    26    48 1   
@<TRIPOS>SUBSTRUCTURE
     1 Z59         1 TEMP              0 ****  ****    0 ROOT
