@<TRIPOS>MOLECULE
Z5A
   81    85     1     0     0
SMALL
abcg2


@<TRIPOS>ATOM
      1 N1T         10.6430    -1.0640    -4.6620 n          1 Z5A      -0.295000
      2 C2T         11.6040    -2.0380    -4.7430 c          1 Z5A       0.614000
      3 O2T         12.0110    -2.4800    -5.8020 o          1 Z5A      -0.656000
      4 N3T         12.0820    -2.4720    -3.5380 ns         1 Z5A      -0.465500
      5 C4T         11.7020    -2.0490    -2.2750 c          1 Z5A       0.586200
      6 O4T         12.2230    -2.5340    -1.2830 o          1 Z5A      -0.579000
      7 C5T         10.6730    -1.0380    -2.2720 cc         1 Z5A      -0.252400
      8 C6T         10.1850    -0.6170    -3.4550 cd         1 Z5A       0.035600
      9 C7T         10.1780    -0.5220    -0.9600 c3         1 Z5A      -0.038900
     10 C5           6.9840     0.6840    -5.7440 c3         1 Z5A       0.207600
     11 O5           6.9710     1.7640    -4.8350 os         1 Z5A      -0.609400
     12 C4           8.2700     0.7070    -6.5490 c5         1 Z5A       0.148300
     13 O4           9.4260     0.6350    -5.7160 os         1 Z5A      -0.442000
     14 C3           8.3550    -0.5110    -7.4810 c5         1 Z5A       0.123500
     15 C2           9.1780    -1.4860    -6.6590 c5         1 Z5A      -0.115400
     16 C1          10.1390    -0.5470    -5.9440 c5         1 Z5A       0.359700
     17 NA3          9.1070    -0.2180    -8.7110 n2         1 Z5A      -0.435200
     18 N3B          8.5320     0.4570    -9.5460 n1         1 Z5A       0.243000
     19 N3C          8.0840     1.0690   -10.3750 n1         1 Z5A      -0.176000
     20 PA           6.4810     1.5600    -3.2820 p5         1 Z5A       1.502800
     21 O1P          7.1480     0.3400    -2.7050 o          1 Z5A      -0.851500
     22 O2P          6.6540     2.8950    -2.6390 o          1 Z5A      -0.851500
     23 OPA          4.8810     1.3090    -3.4710 os         1 Z5A      -0.720800
     24 PB           3.9770    -0.0760    -3.3760 p5         1 Z5A       1.539800
     25 O3P          4.6310    -1.1690    -4.1550 o          1 Z5A      -0.899500
     26 O4P          2.5800     0.3550    -3.7060 o          1 Z5A      -0.899500
     27 OPB          4.1090    -0.3210    -1.7640 os         1 Z5A      -0.706800
     28 PC           2.9860    -1.1720    -0.9120 p5         1 Z5A       1.542800
     29 O5P          2.6160    -2.4030    -1.6740 o          1 Z5A      -0.895000
     30 O6P          1.9320    -0.2410    -0.3970 o          1 Z5A      -0.895000
     31 OPC          3.9370    -1.6550     0.3300 os         1 Z5A      -0.732800
     32 PD           4.2800    -0.8540     1.7150 p5         1 Z5A       1.560800
     33 O7P          3.4410    -1.4210     2.8170 o          1 Z5A      -0.895000
     34 O8P          4.3440     0.6220     1.4850 o          1 Z5A      -0.895000
     35 OPD          5.8460    -1.3210     1.9210 os         1 Z5A      -0.734800
     36 PE           6.5430    -2.8050     2.0070 p5         1 Z5A       1.503800
     37 O9P          5.5270    -3.8830     1.7920 o          1 Z5A      -0.888500
     38 OAP          7.4360    -2.8150     3.2070 o          1 Z5A      -0.888500
     39 O5B          7.5530    -2.7000     0.7200 os         1 Z5A      -0.622400
     40 C5B          6.9980    -2.4750    -0.5630 c3         1 Z5A       0.186600
     41 C4B          7.6850    -3.3240    -1.5970 c5         1 Z5A       0.105300
     42 O4B          7.5260    -4.7170    -1.3010 os         1 Z5A      -0.436000
     43 C3B          7.0600    -3.1250    -2.9850 c5         1 Z5A       0.184300
     44 O3           7.6210    -2.0960    -3.7180 oh         1 Z5A      -0.802000
     45 C2B          7.2860    -4.4880    -3.6270 c5         1 Z5A       0.106300
     46 O2           8.6110    -4.5640    -4.0760 oh         1 Z5A      -0.697000
     47 C1B          7.0720    -5.4090    -2.4160 c5         1 Z5A       0.285300
     48 N9A          5.6620    -5.7560    -2.2330 na         1 Z5A      -0.293300
     49 C8A          4.8090    -5.3840    -1.2260 cc         1 Z5A       0.536700
     50 N7A          3.6350    -5.9420    -1.3210 nd         1 Z5A      -0.549100
     51 C5A          3.7130    -6.7220    -2.4430 ca         1 Z5A      -0.040600
     52 C6A          2.8000    -7.5800    -3.0800 ca         1 Z5A       0.418900
     53 N6A          1.5520    -7.7580    -2.6400 nv         1 Z5A      -1.089900
     54 N1A          3.2090    -8.2350    -4.1730 nb         1 Z5A      -0.360000
     55 C2A          4.4520    -8.0470    -4.6120 ca         1 Z5A       0.104900
     56 N3A          5.3930    -7.2690    -4.1090 nb         1 Z5A      -0.216000
     57 C4A          4.9700    -6.6260    -3.0210 ca         1 Z5A       0.068500
     58 H3T         12.7940    -3.1900    -3.5850 hn         1 Z5A       0.299500
     59 H6T          9.3940     0.1150    -3.4960 h4         1 Z5A       0.288000
     60 H7T1         9.8070    -1.3280    -0.3240 hc         1 Z5A       0.069367
     61 H7T2         9.3620     0.1830    -1.1080 hc         1 Z5A       0.069367
     62 H7T3        10.9700    -0.0160    -0.4040 hc         1 Z5A       0.069367
     63 H5'1         6.8590    -0.2770    -5.2440 h1         1 Z5A       0.057200
     64 H5'2         6.1510     0.7870    -6.4490 h1         1 Z5A       0.057200
     65 H4           8.3220     1.6460    -7.1100 h1         1 Z5A       0.040700
     66 H3           7.3650    -0.9050    -7.7290 h1         1 Z5A       0.089700
     67 H2'1         8.5520    -2.0030    -5.9300 hc         1 Z5A       0.105700
     68 H2'2         9.6850    -2.2250    -7.2740 hc         1 Z5A       0.105700
     69 H1          11.0190    -0.3390    -6.5610 h2         1 Z5A       0.042700
     70 H5A1         5.9260    -2.6800    -0.5900 h1         1 Z5A       0.091700
     71 H5A2         7.1170    -1.4260    -0.8480 h1         1 Z5A       0.091700
     72 H4B          8.7560    -3.0960    -1.6420 h1         1 Z5A       0.048700
     73 H3B          5.9750    -2.9830    -2.8670 h1         1 Z5A       0.128700
     74 HO'3         7.3160    -1.2350    -3.3490 ho         1 Z5A       0.613000
     75 H2           6.5700    -4.6980    -4.4290 h1         1 Z5A       0.063700
     76 HO'2         8.7210    -5.3960    -4.5480 ho         1 Z5A       0.454000
     77 H1B          7.6190    -6.3520    -2.5220 h2         1 Z5A       0.035700
     78 H8A          5.1060    -4.7230    -0.4240 h5         1 Z5A       0.173800
     79 H6A1         1.2350    -7.3160    -1.7950 hn         1 Z5A       0.485000
     80 H6A2         0.9490    -8.4290    -3.0820 hn         1 Z5A       0.485000
     81 H2A          4.7200    -8.6090    -5.5000 h5         1 Z5A      -0.009900
@<TRIPOS>BOND
     1     1     2 1   
     2     1     8 1   
     3     1    16 1   
     4     2     3 2   
     5     2     4 1   
     6     4     5 1   
     7     4    58 1   
     8     5     6 2   
     9     5     7 1   
    10     7     8 2   
    11     7     9 1   
    12     8    59 1   
    13     9    60 1   
    14     9    61 1   
    15     9    62 1   
    16    10    11 1   
    17    10    12 1   
    18    10    63 1   
    19    10    64 1   
    20    11    20 1   
    21    12    13 1   
    22    12    14 1   
    23    12    65 1   
    24    13    16 1   
    25    14    15 1   
    26    14    17 1   
    27    14    66 1   
    28    15    16 1   
    29    15    67 1   
    30    15    68 1   
    31    16    69 1   
    32    17    18 1   
    33    18    19 3   
    34    20    21 1   
    35    20    22 1   
    36    20    23 1   
    37    23    24 1   
    38    24    25 1   
    39    24    26 1   
    40    24    27 1   
    41    27    28 1   
    42    28    29 1   
    43    28    30 1   
    44    28    31 1   
    45    31    32 1   
    46    32    33 1   
    47    32    34 1   
    48    32    35 1   
    49    35    36 1   
    50    36    37 1   
    51    36    38 1   
    52    36    39 1   
    53    39    40 1   
    54    40    41 1   
    55    40    70 1   
    56    40    71 1   
    57    41    42 1   
    58    41    43 1   
    59    41    72 1   
    60    42    47 1   
    61    43    44 1   
    62    43    45 1   
    63    43    73 1   
    64    44    74 1   
    65    45    46 1   
    66    45    47 1   
    67    45    75 1   
    68    46    76 1   
    69    47    48 1   
    70    47    77 1   
    71    48    49 1   
    72    48    57 1   
    73    49    50 2   
    74    49    78 1   
    75    50    51 1   
    76    51    52 ar  
    77    51    57 ar  
    78    52    53 1   
    79    52    54 ar  
    80    53    79 1   
    81    53    80 1   
    82    54    55 ar  
    83    55    56 ar  
    84    55    81 1   
    85    56    57 ar  
@<TRIPOS>SUBSTRUCTURE
     1 Z5A         1 TEMP              0 ****  ****    0 ROOT
