@<TRIPOS>MOLECULE
Z5A
   81    85     1     0     0
SMALL
No Charge or Current Charge


@<TRIPOS>ATOM
      1 N1T         10.6660    -1.1010    -5.2200 n          1 Z5A      -0.295000
      2 C2T         11.7950    -1.8190    -5.6430 c          1 Z5A       0.614000
      3 O2T         11.8700    -2.3850    -6.7220 o          1 Z5A      -0.656000
      4 N3T         12.8350    -1.8630    -4.7700 ns         1 Z5A      -0.465500
      5 C4T         12.9200    -1.3060    -3.5330 c          1 Z5A       0.586200
      6 O4T         13.9290    -1.4310    -2.8570 o          1 Z5A      -0.579000
      7 C5T         11.7100    -0.5620    -3.1140 cc         1 Z5A      -0.252400
      8 C6T         10.6270    -0.4850    -3.9650 cd         1 Z5A       0.035600
      9 C7T         11.7510     0.0640    -1.7380 c3         1 Z5A      -0.038900
     10 C5           6.4910     1.1240    -6.1170 c3         1 Z5A       0.207600
     11 O5           6.9370     1.8310    -4.9410 os         1 Z5A      -0.609400
     12 C4           7.5040     0.0220    -6.5650 c5         1 Z5A       0.148300
     13 O4           8.8220     0.2260    -6.0060 os         1 Z5A      -0.442000
     14 C3           7.1220    -1.4500    -6.1700 c5         1 Z5A       0.123500
     15 C2           8.4550    -2.0430    -5.6220 c5         1 Z5A      -0.115400
     16 C1           9.5000    -1.0270    -6.1300 c5         1 Z5A       0.359700
     17 NA3          6.7850    -2.1930    -7.4140 n2         1 Z5A      -0.435200
     18 N3B          5.6360    -2.6580    -7.4870 n1         1 Z5A       0.243000
     19 N3C          4.5690    -3.0050    -7.6780 n1         1 Z5A      -0.176000
     20 PA           6.6120     1.3070    -3.4510 p5         1 Z5A       1.502800
     21 O1P          6.8820    -0.1540    -3.2980 o          1 Z5A      -0.851500
     22 O2P          7.4190     2.0950    -2.4740 o          1 Z5A      -0.851500
     23 OPA          5.1130     1.7850    -3.4190 os         1 Z5A      -0.720800
     24 PB           4.0050     0.7280    -3.0660 p5         1 Z5A       1.539800
     25 O3P          4.0290    -0.4220    -4.0200 o          1 Z5A      -0.899500
     26 O4P          2.7030     1.4580    -3.1480 o          1 Z5A      -0.899500
     27 OPB          4.4590     0.3940    -1.5970 os         1 Z5A      -0.706800
     28 PC           3.3000    -0.1820    -0.6980 p5         1 Z5A       1.542800
     29 O5P          2.4480    -1.1880    -1.4020 o          1 Z5A      -0.895000
     30 O6P          2.5180     0.9350    -0.0830 o          1 Z5A      -0.895000
     31 OPC          4.2910    -0.8600     0.3200 os         1 Z5A      -0.732800
     32 PD           3.5860    -1.3130     1.6520 p5         1 Z5A       1.560800
     33 O7P          2.2860    -2.0400     1.5320 o          1 Z5A      -0.895000
     34 O8P          3.4610    -0.1760     2.6170 o          1 Z5A      -0.895000
     35 OPD          4.7450    -2.2250     2.2020 os         1 Z5A      -0.734800
     36 PE           4.8050    -3.6660     1.5750 p5         1 Z5A       1.503800
     37 O9P          4.4890    -3.7850     0.1240 o          1 Z5A      -0.888500
     38 OAP          4.0490    -4.6550     2.4020 o          1 Z5A      -0.888500
     39 O5B          6.3840    -3.8850     1.8270 os         1 Z5A      -0.622400
     40 C5B          7.3650    -3.1120     1.0980 c3         1 Z5A       0.186600
     41 C4B          7.7670    -3.7450    -0.2750 c5         1 Z5A       0.105300
     42 O4B          7.1980    -5.0570    -0.5200 os         1 Z5A      -0.436000
     43 C3B          7.3490    -2.9340    -1.5300 c5         1 Z5A       0.184300
     44 O3           8.0190    -1.6580    -1.6420 oh         1 Z5A      -0.802000
     45 C2B          7.7620    -3.9850    -2.6210 c5         1 Z5A       0.106300
     46 O2           9.1930    -4.0610    -2.8470 oh         1 Z5A      -0.697000
     47 C1B          7.2100    -5.3050    -1.9520 c5         1 Z5A       0.285300
     48 N9A          5.8830    -5.7380    -2.3910 na         1 Z5A      -0.293300
     49 C8A          4.8790    -6.2390    -1.5490 cc         1 Z5A       0.536700
     50 N7A          3.8460    -6.7440    -2.2600 nd         1 Z5A      -0.549100
     51 C5A          4.2360    -6.5390    -3.5860 ca         1 Z5A      -0.040600
     52 C6A          3.5630    -6.8780    -4.7820 ca         1 Z5A       0.418900
     53 N6A          2.3450    -7.4860    -4.8090 nv         1 Z5A      -1.089900
     54 N1A          4.1110    -6.6300    -5.9820 nb         1 Z5A      -0.360000
     55 C2A          5.3320    -6.0400    -5.9680 ca         1 Z5A       0.104900
     56 N3A          6.0460    -5.6830    -4.8740 nb         1 Z5A      -0.216000
     57 C4A          5.4670    -5.9390    -3.6820 ca         1 Z5A       0.068500
     58 H3T         13.6440    -2.3780    -5.0780 hn         1 Z5A       0.299500
     59 H6T          9.6970     0.0320    -3.7330 h4         1 Z5A       0.288000
     60 H7T1        11.8830    -0.7000    -0.9620 hc         1 Z5A       0.069367
     61 H7T2        10.8230     0.6050    -1.5140 hc         1 Z5A       0.069367
     62 H7T3        12.5800     0.7790    -1.6530 hc         1 Z5A       0.069367
     63 H5'1         5.5050     0.6690    -5.9630 h1         1 Z5A       0.057200
     64 H5'2         6.3810     1.8340    -6.9460 h1         1 Z5A       0.057200
     65 H4           7.6030     0.1000    -7.6560 h1         1 Z5A       0.040700
     66 H3           6.3120    -1.5020    -5.4280 h1         1 Z5A       0.089700
     67 H2'1         8.4300    -2.0540    -4.5310 hc         1 Z5A       0.105700
     68 H2'2         8.6610    -3.0650    -5.9560 hc         1 Z5A       0.105700
     69 H1           9.8070    -1.2070    -7.1680 h2         1 Z5A       0.042700
     70 H5A1         7.0050    -2.0890     0.9180 h1         1 Z5A       0.091700
     71 H5A2         8.2770    -3.0100     1.6990 h1         1 Z5A       0.091700
     72 H4B          8.8610    -3.8560    -0.2590 h1         1 Z5A       0.048700
     73 H3B          6.2550    -2.7970    -1.5320 h1         1 Z5A       0.128700
     74 HO'3         7.5040    -1.0950    -2.3280 ho         1 Z5A       0.613000
     75 H2           7.2430    -3.7710    -3.5640 h1         1 Z5A       0.063700
     76 HO'2         9.3510    -4.7890    -3.4870 ho         1 Z5A       0.454000
     77 H1B          7.8750    -6.1490    -2.1740 h2         1 Z5A       0.035700
     78 H8A          4.9700    -6.2350    -0.4670 h5         1 Z5A       0.173800
     79 H6A1         2.0060    -7.8820    -3.9350 hn         1 Z5A       0.485000
     80 H6A2         2.0550    -7.9440    -5.6680 hn         1 Z5A       0.485000
     81 H2A          5.7870    -5.8360    -6.9350 h5         1 Z5A      -0.009900
@<TRIPOS>BOND
     1     1     2 1   
     2     1     8 1   
     3     1    16 1   
     4     2     3 2   
     5     2     4 1   
     6     4     5 1   
     7     4    58 1   
     8     5     6 2   
     9     5     7 1   
    10     7     8 2   
    11     7     9 1   
    12     8    59 1   
    13     9    60 1   
    14     9    61 1   
    15     9    62 1   
    16    10    11 1   
    17    10    12 1   
    18    10    63 1   
    19    10    64 1   
    20    11    20 1   
    21    12    13 1   
    22    12    14 1   
    23    12    65 1   
    24    13    16 1   
    25    14    15 1   
    26    14    17 1   
    27    14    66 1   
    28    15    16 1   
    29    15    67 1   
    30    15    68 1   
    31    16    69 1   
    32    17    18 1   
    33    18    19 3   
    34    20    21 1   
    35    20    22 1   
    36    20    23 1   
    37    23    24 1   
    38    24    25 1   
    39    24    26 1   
    40    24    27 1   
    41    27    28 1   
    42    28    29 1   
    43    28    30 1   
    44    28    31 1   
    45    31    32 1   
    46    32    33 1   
    47    32    34 1   
    48    32    35 1   
    49    35    36 1   
    50    36    37 1   
    51    36    38 1   
    52    36    39 1   
    53    39    40 1   
    54    40    41 1   
    55    40    70 1   
    56    40    71 1   
    57    41    42 1   
    58    41    43 1   
    59    41    72 1   
    60    42    47 1   
    61    43    44 1   
    62    43    45 1   
    63    43    73 1   
    64    44    74 1   
    65    45    46 1   
    66    45    47 1   
    67    45    75 1   
    68    46    76 1   
    69    47    48 1   
    70    47    77 1   
    71    48    49 1   
    72    48    57 1   
    73    49    50 2   
    74    49    78 1   
    75    50    51 1   
    76    51    52 ar  
    77    51    57 ar  
    78    52    53 1   
    79    52    54 ar  
    80    53    79 1   
    81    53    80 1   
    82    54    55 ar  
    83    55    56 ar  
    84    55    81 1   
    85    56    57 ar  
@<TRIPOS>SUBSTRUCTURE
     1 Z5A         1 TEMP              0 ****  ****    0 ROOT
