@<TRIPOS>MOLECULE
Z5C
   19    19     1     0     0
SMALL
abcg2


@<TRIPOS>ATOM
      1 N1          -0.1690   -25.5840    30.3040 nt         1 Z5C      -0.603000
      2 C4          -2.1460   -24.3810    29.7260 cc         1 Z5C       0.199500
      3 C5          -0.7190   -24.7210    29.4420 c          1 Z5C       0.532600
      4 O2          -0.1360   -24.2270    28.4940 o          1 Z5C      -0.564100
      5 C3          -2.8910   -24.5010    30.9250 cc         1 Z5C      -0.221000
      6 N           -2.8690   -23.8780    28.7650 nd         1 Z5C      -0.292300
      7 O1          -4.0920   -23.6550    29.2990 os         1 Z5C      -0.063700
      8 C2          -4.1090   -24.0220    30.5810 cd         1 Z5C       0.133300
      9 C1          -5.3860   -23.8670    31.3460 c3         1 Z5C       0.120300
     10 O           -5.1500   -23.8000    32.7190 os         1 Z5C      -0.438000
     11 C           -4.6750   -22.5430    33.1510 c3         1 Z5C       0.133900
     12 H1           0.7890   -25.8720    30.1820 hn         1 Z5C       0.320000
     13 H2          -0.6920   -26.0360    31.0350 hn         1 Z5C       0.320000
     14 H3          -2.5700   -24.8630    31.8870 ha         1 Z5C       0.159000
     15 H4          -5.9340   -22.9910    30.9720 h1         1 Z5C       0.074200
     16 H5          -6.0190   -24.7400    31.1640 h1         1 Z5C       0.074200
     17 H6          -4.5720   -22.5870    34.2340 h1         1 Z5C       0.038367
     18 H7          -3.7000   -22.2930    32.7230 h1         1 Z5C       0.038367
     19 H8          -5.3770   -21.7410    32.8990 h1         1 Z5C       0.038367
@<TRIPOS>BOND
     1     1     3 1   
     2     1    12 1   
     3     1    13 1   
     4     2     3 1   
     5     2     5 1   
     6     2     6 2   
     7     3     4 2   
     8     5     8 2   
     9     5    14 1   
    10     6     7 1   
    11     7     8 1   
    12     8     9 1   
    13     9    10 1   
    14     9    15 1   
    15     9    16 1   
    16    10    11 1   
    17    11    17 1   
    18    11    18 1   
    19    11    19 1   
@<TRIPOS>SUBSTRUCTURE
     1 Z5C         1 TEMP              0 ****  ****    0 ROOT
