@<TRIPOS>MOLECULE
Z5C
   19    19     1     0     0
SMALL
No Charge or Current Charge


@<TRIPOS>ATOM
      1 N1          -0.2280   -25.6430    30.3290 nt         1 Z5C      -0.603000
      2 C4          -2.1240   -24.2400    29.6850 cc         1 Z5C       0.199500
      3 C5          -0.7200   -24.7260    29.4550 c          1 Z5C       0.532600
      4 O2          -0.0020   -24.3490    28.5390 o          1 Z5C      -0.564100
      5 C3          -2.9400   -24.6880    30.7520 cc         1 Z5C      -0.221000
      6 N           -2.7420   -23.3460    28.9180 nd         1 Z5C      -0.292300
      7 O1          -4.0440   -23.1980    29.5200 os         1 Z5C      -0.063700
      8 C2          -4.1110   -24.0200    30.6120 cd         1 Z5C       0.133300
      9 C1          -5.3740   -24.0580    31.4400 c3         1 Z5C       0.120300
     10 O           -5.0810   -23.7560    32.8230 os         1 Z5C      -0.438000
     11 C           -4.6750   -22.3990    33.0860 c3         1 Z5C       0.133900
     12 H1           0.7120   -25.9890    30.2020 hn         1 Z5C       0.320000
     13 H2          -0.7920   -25.9760    31.0970 hn         1 Z5C       0.320000
     14 H3          -2.6850   -25.4070    31.5220 ha         1 Z5C       0.159000
     15 H4          -6.1050   -23.3480    31.0290 h1         1 Z5C       0.074200
     16 H5          -5.8080   -25.0620    31.3570 h1         1 Z5C       0.074200
     17 H6          -4.5070   -22.2530    34.1600 h1         1 Z5C       0.038367
     18 H7          -3.7410   -22.1560    32.5620 h1         1 Z5C       0.038367
     19 H8          -5.4490   -21.6900    32.7630 h1         1 Z5C       0.038367
@<TRIPOS>BOND
     1     1     3 1   
     2     1    12 1   
     3     1    13 1   
     4     2     3 1   
     5     2     5 1   
     6     2     6 2   
     7     3     4 2   
     8     5     8 2   
     9     5    14 1   
    10     6     7 1   
    11     7     8 1   
    12     8     9 1   
    13     9    10 1   
    14     9    15 1   
    15     9    16 1   
    16    10    11 1   
    17    11    17 1   
    18    11    18 1   
    19    11    19 1   
@<TRIPOS>SUBSTRUCTURE
     1 Z5C         1 TEMP              0 ****  ****    0 ROOT
