@<TRIPOS>MOLECULE
Z5D
   50    53     1     0     0
SMALL
bcc


@<TRIPOS>ATOM
      1 C10         -8.0140     5.5220    64.7030 ca         1 Z5D      -0.124500
      2 C13         -4.2530     5.5390    64.9740 cc         1 Z5D       0.428800
      3 C15         -2.1150     5.3730    65.4450 cd         1 Z5D       0.735300
      4 C17         -3.7630     6.2840    63.9470 cd         1 Z5D      -0.265400
      5 C20          1.3000     5.2160    66.1410 ce         1 Z5D       0.274300
      6 C21          2.5500     5.7390    65.4240 c          1 Z5D       0.847300
      7 C24          1.5060     4.3610    67.3650 c3         1 Z5D      -0.092400
      8 C26          2.6040     6.2000    68.7850 ca         1 Z5D      -0.151200
      9 C01        -10.2250     3.2110    66.5490 ca         1 Z5D      -0.121500
     10 C02        -11.5620     2.9580    66.8180 ca         1 Z5D      -0.132500
     11 C03        -12.5160     3.9470    66.6200 ca         1 Z5D      -0.137000
     12 C04        -12.1200     5.1930    66.1520 ca         1 Z5D      -0.132500
     13 C05        -10.7830     5.4470    65.8840 ca         1 Z5D      -0.121500
     14 C06         -9.8130     4.4590    66.0770 cp         1 Z5D      -0.015000
     15 C07         -8.3910     4.7300    65.7900 cp         1 Z5D      -0.056000
     16 C08         -7.3780     4.2070    66.5930 ca         1 Z5D      -0.124500
     17 C09         -6.0440     4.4680    66.3270 ca         1 Z5D      -0.114500
     18 C11         -6.6830     5.7820    64.4330 ca         1 Z5D      -0.114500
     19 C12         -5.6690     5.2610    65.2420 ca         1 Z5D      -0.083500
     20 C25          2.5500     4.8890    68.3140 ca         1 Z5D       0.050700
     21 C30          3.6070     6.6570    69.6320 ca         1 Z5D      -0.078000
     22 C31          4.5690     5.7720    70.0780 ca         1 Z5D      -0.152000
     23 C32          4.5330     4.4520    69.6460 ca         1 Z5D      -0.099000
     24 C33          3.5470     4.0310    68.7710 ca         1 Z5D      -0.120000
     25 N14         -3.3000     5.0240    65.8220 nc         1 Z5D      -0.769000
     26 N18         -0.9740     5.0190    66.0820 nu         1 Z5D      -0.564000
     27 N19          0.1830     5.4750    65.5870 n2         1 Z5D      -0.390400
     28 O22          2.4230     6.7560    64.7270 o          1 Z5D      -0.789300
     29 O23          3.5720     5.0590    65.6270 o          1 Z5D      -0.789300
     30 O28          0.4330     6.8010    68.4010 o          1 Z5D      -0.210500
     31 O29          1.9410     8.2960    68.1650 o          1 Z5D      -0.210500
     32 S16         -2.0390     6.3620    64.0220 ss         1 Z5D      -0.107300
     33 H1          -8.7690     5.9280    64.0420 ha         1 Z5D       0.123500
     34 H2          -4.2970     6.7870    63.1570 h4         1 Z5D       0.161000
     35 H3           0.5840     4.2020    67.9260 hc         1 Z5D       0.053200
     36 H4           1.8270     3.3700    67.0360 hc         1 Z5D       0.053200
     37 H5          -9.4970     2.4210    66.6890 ha         1 Z5D       0.133000
     38 H6         -11.8600     1.9810    67.1770 ha         1 Z5D       0.124000
     39 H7         -13.5590     3.7490    66.8280 ha         1 Z5D       0.123000
     40 H8         -12.8530     5.9750    66.0010 ha         1 Z5D       0.124000
     41 H9         -10.4890     6.4310    65.5400 ha         1 Z5D       0.133000
     42 H10         -7.6300     3.6050    67.4570 ha         1 Z5D       0.123500
     43 H11         -5.2830     4.0570    66.9760 ha         1 Z5D       0.143500
     44 H12         -6.4410     6.3950    63.5750 ha         1 Z5D       0.143500
     45 H13          3.6180     7.6860    69.9630 ha         1 Z5D       0.149000
     46 H14          5.3410     6.1100    70.7550 ha         1 Z5D       0.127000
     47 H15          5.2840     3.7500    69.9840 ha         1 Z5D       0.124000
     48 H16          3.5480     3.0080    68.4170 ha         1 Z5D       0.137000
     49 H17         -1.0480     4.4380    66.9080 hn         1 Z5D       0.433800
     50 N27          1.5840     7.1690    68.4140 no         1 Z5D       0.322200
@<TRIPOS>BOND
     1     1    15 ar  
     2     1    18 ar  
     3     1    33 1   
     4     2     4 2   
     5     2    19 1   
     6     2    25 1   
     7     3    25 2   
     8     3    26 1   
     9     3    32 1   
    10     4    32 1   
    11     4    34 1   
    12     5     6 1   
    13     5     7 1   
    14     5    27 2   
    15     6    28 1   
    16     6    29 1   
    17     7    20 1   
    18     7    35 1   
    19     7    36 1   
    20     8    20 ar  
    21     8    21 ar  
    22     8    50 1   
    23     9    10 ar  
    24     9    14 ar  
    25     9    37 1   
    26    10    11 ar  
    27    10    38 1   
    28    11    12 ar  
    29    11    39 1   
    30    12    13 ar  
    31    12    40 1   
    32    13    14 ar  
    33    13    41 1   
    34    14    15 1   
    35    15    16 ar  
    36    16    17 ar  
    37    16    42 1   
    38    17    19 ar  
    39    17    43 1   
    40    18    19 ar  
    41    18    44 1   
    42    20    24 ar  
    43    21    22 ar  
    44    21    45 1   
    45    22    23 ar  
    46    22    46 1   
    47    23    24 ar  
    48    23    47 1   
    49    24    48 1   
    50    26    27 1   
    51    26    49 1   
    52    30    50 1   
    53    31    50 1   
@<TRIPOS>SUBSTRUCTURE
     1 Z5D         1 TEMP              0 ****  ****    0 ROOT
