@<TRIPOS>MOLECULE
Z5D
   50    53     1     0     0
SMALL
No Charge or Current Charge


@<TRIPOS>ATOM
      1 C10         -7.7250     5.7670    64.8680 ca         1 Z5D      -0.106500
      2 C13         -3.9300     5.8190    65.1720 cc         1 Z5D       0.363500
      3 C15         -1.7730     5.5170    65.2380 cd         1 Z5D       0.735300
      4 C17         -3.5660     6.9600    64.4930 cd         1 Z5D      -0.327000
      5 C20          1.6890     4.5390    65.7510 ce         1 Z5D       0.274300
      6 C21          2.9370     4.4090    64.8530 c          1 Z5D       0.636700
      7 C24          1.7300     3.8950    67.1440 c3         1 Z5D      -0.092400
      8 C26          1.5920     5.8530    68.8370 ca         1 Z5D      -0.151200
      9 C01         -9.9380     3.3280    66.6880 ca         1 Z5D      -0.103500
     10 C02        -11.2900     3.0290    66.9350 ca         1 Z5D      -0.114500
     11 C03        -12.2780     3.9970    66.7010 ca         1 Z5D      -0.119000
     12 C04        -11.9150     5.2650    66.2190 ca         1 Z5D      -0.114500
     13 C05        -10.5630     5.5630    65.9720 ca         1 Z5D      -0.103500
     14 C06         -9.5460     4.6010    66.2010 cp         1 Z5D      -0.015000
     15 C07         -8.1050     4.9210    65.9370 cp         1 Z5D      -0.056000
     16 C08         -7.0730     4.3800    66.7410 ca         1 Z5D      -0.106500
     17 C09         -5.7220     4.6800    66.4940 ca         1 Z5D      -0.096500
     18 C11         -6.3750     6.0680    64.6180 ca         1 Z5D      -0.096500
     19 C12         -5.3530     5.5440    65.4410 ca         1 Z5D      -0.083500
     20 C25          2.3320     4.8150    68.2090 ca         1 Z5D       0.050700
     21 C30          2.2260     6.7040    69.7690 ca         1 Z5D      -0.060000
     22 C31          3.5800     6.5230    70.0910 ca         1 Z5D      -0.134000
     23 C32          4.3120     5.4940    69.4830 ca         1 Z5D      -0.081000
     24 C33          3.6920     4.6500    68.5470 ca         1 Z5D      -0.102000
     25 N14         -2.9230     4.9970    65.6100 nc         1 Z5D      -0.769000
     26 N18         -0.6490     4.8330    65.6000 nu         1 Z5D      -0.619200
     27 N19          0.6470     5.2020    65.3030 n2         1 Z5D      -0.390400
     28 O22          2.9380     4.9260    63.7390 o          1 Z5D      -0.684000
     29 O23          3.9120     3.7870    65.2660 o          1 Z5D      -0.684000
     30 O28         -0.6370     5.1710    68.8380 o          1 Z5D      -0.400500
     31 O29         -0.2020     7.2350    68.2840 o          1 Z5D      -0.400500
     32 S16         -1.8170     7.0380    64.3440 ss         1 Z5D       0.037600
     33 H1          -8.4830     6.1820    64.2090 ha         1 Z5D       0.105500
     34 H2          -4.1890     7.7480    64.0940 h4         1 Z5D       0.143000
     35 H3           0.7440     3.5350    67.4520 hc         1 Z5D       0.053200
     36 H4           2.3200     2.9720    67.0980 hc         1 Z5D       0.053200
     37 H5          -9.1900     2.5590    66.8630 ha         1 Z5D       0.115000
     38 H6         -11.5690     2.0450    67.3050 ha         1 Z5D       0.106000
     39 H7         -13.3240     3.7660    66.8920 ha         1 Z5D       0.105000
     40 H8         -12.6790     6.0180    66.0400 ha         1 Z5D       0.106000
     41 H9         -10.3020     6.5550    65.6120 ha         1 Z5D       0.115000
     42 H10         -7.3190     3.7290    67.5760 ha         1 Z5D       0.105500
     43 H11         -4.9600     4.2440    67.1360 ha         1 Z5D       0.125500
     44 H12         -6.1340     6.7030    63.7690 ha         1 Z5D       0.125500
     45 H13          1.6660     7.5030    70.2520 ha         1 Z5D       0.131000
     46 H14          4.0600     7.1790    70.8130 ha         1 Z5D       0.109000
     47 H15          5.3620     5.3520    69.7300 ha         1 Z5D       0.106000
     48 H16          4.2780     3.8660    68.0750 ha         1 Z5D       0.119000
     49 H17         -0.9010     4.0090    66.1460 hn         1 Z5D       0.489000
     50 N27          0.1520     6.0770    68.5420 no         1 Z5D       0.702200
@<TRIPOS>BOND
     1     1    15 ar  
     2     1    18 ar  
     3     1    33 1   
     4     2     4 2   
     5     2    19 1   
     6     2    25 1   
     7     3    25 2   
     8     3    26 1   
     9     3    32 1   
    10     4    32 1   
    11     4    34 1   
    12     5     6 1   
    13     5     7 1   
    14     5    27 2   
    15     6    28 1   
    16     6    29 1   
    17     7    20 1   
    18     7    35 1   
    19     7    36 1   
    20     8    20 ar  
    21     8    21 ar  
    22     8    50 1   
    23     9    10 ar  
    24     9    14 ar  
    25     9    37 1   
    26    10    11 ar  
    27    10    38 1   
    28    11    12 ar  
    29    11    39 1   
    30    12    13 ar  
    31    12    40 1   
    32    13    14 ar  
    33    13    41 1   
    34    14    15 1   
    35    15    16 ar  
    36    16    17 ar  
    37    16    42 1   
    38    17    19 ar  
    39    17    43 1   
    40    18    19 ar  
    41    18    44 1   
    42    20    24 ar  
    43    21    22 ar  
    44    21    45 1   
    45    22    23 ar  
    46    22    46 1   
    47    23    24 ar  
    48    23    47 1   
    49    24    48 1   
    50    26    27 1   
    51    26    49 1   
    52    30    50 1   
    53    31    50 1   
@<TRIPOS>SUBSTRUCTURE
     1 Z5D         1 TEMP              0 ****  ****    0 ROOT
