@<TRIPOS>MOLECULE
Z5G
   35    37     1     0     0
SMALL
abcg2


@<TRIPOS>ATOM
      1 C02         94.1250   100.1960    75.1170 ca         1 Z5G       0.126000
      2 C03         94.4020   100.6830    73.8480 ca         1 Z5G      -0.125000
      3 C04         95.6890   100.5720    73.3500 ca         1 Z5G      -0.060500
      4 C05         96.7030    99.9950    74.1110 ca         1 Z5G      -0.121600
      5 C06         96.4010    99.5140    75.3830 ca         1 Z5G      -0.060500
      6 C07         95.1150    99.6090    75.8900 ca         1 Z5G      -0.125000
      7 C08         98.0580    99.8760    73.5020 c          1 Z5G       0.597700
      8 C11        100.3860    99.4640    74.0100 cc         1 Z5G      -0.041400
      9 C13        102.5610    99.0820    72.9220 cc         1 Z5G      -0.287300
     10 C14        103.6790    98.8880    71.9480 c6         1 Z5G       0.016900
     11 C15        104.8630    98.2260    72.6460 c6         1 Z5G      -0.069400
     12 C16        105.1350    98.9000    73.9840 c6         1 Z5G      -0.074400
     13 C17        103.9640    98.7340    74.9500 c6         1 Z5G      -0.007100
     14 C18        102.6470    99.0080    74.2790 cd         1 Z5G      -0.021300
     15 C19        101.3810    99.2210    74.9290 cd         1 Z5G      -0.221600
     16 C20        101.0970    99.1660    76.4080 c          1 Z5G       0.740600
     17 N10         99.0760    99.6890    74.3610 ns         1 Z5G      -0.382100
     18 O09         98.2260    99.9450    72.2900 o          1 Z5G      -0.636100
     19 O21        102.0100    98.8260    77.1720 o          1 Z5G      -0.714000
     20 O22         99.9210    99.4690    76.7670 o          1 Z5G      -0.714000
     21 S12        100.9520    99.4300    72.3840 ss         1 Z5G       0.166000
     22 CL01        92.5170   100.3130    75.7410 cl         1 Z5G      -0.228000
     23 H1          93.6240   101.1390    73.2520 ha         1 Z5G       0.123500
     24 H2          95.9030   100.9440    72.3580 ha         1 Z5G       0.144500
     25 H3          97.1520    99.0330    75.9960 ha         1 Z5G       0.144500
     26 H4          94.8890    99.2240    76.8750 ha         1 Z5G       0.123500
     27 H5         103.9900    99.8510    71.5270 hc         1 Z5G       0.029700
     28 H6         103.3520    98.2810    71.1000 hc         1 Z5G       0.029700
     29 H7         104.6470    97.1650    72.8080 hc         1 Z5G       0.027200
     30 H8         105.7430    98.2740    72.0020 hc         1 Z5G       0.027200
     31 H9         106.0410    98.4950    74.4400 hc         1 Z5G       0.026700
     32 H10        105.3220    99.9650    73.8150 hc         1 Z5G       0.026700
     33 H11        103.9600    97.7190    75.3590 hc         1 Z5G       0.064700
     34 H12        104.0910    99.3940    75.8070 hc         1 Z5G       0.064700
     35 H13         99.0150    99.6930    75.4020 hn         1 Z5G       0.408500
@<TRIPOS>BOND
     1     1     2 ar  
     2     1     6 ar  
     3     1    22 1   
     4     2     3 ar  
     5     2    23 1   
     6     3     4 ar  
     7     3    24 1   
     8     4     5 ar  
     9     4     7 1   
    10     5     6 ar  
    11     5    25 1   
    12     6    26 1   
    13     7    17 1   
    14     7    18 2   
    15     8    15 2   
    16     8    17 1   
    17     8    21 1   
    18     9    10 1   
    19     9    14 2   
    20     9    21 1   
    21    10    11 1   
    22    10    27 1   
    23    10    28 1   
    24    11    12 1   
    25    11    29 1   
    26    11    30 1   
    27    12    13 1   
    28    12    31 1   
    29    12    32 1   
    30    13    14 1   
    31    13    33 1   
    32    13    34 1   
    33    14    15 1   
    34    15    16 1   
    35    16    19 1   
    36    16    20 1   
    37    17    35 1   
@<TRIPOS>SUBSTRUCTURE
     1 Z5G         1 TEMP              0 ****  ****    0 ROOT
