@<TRIPOS>MOLECULE
Z5G
   35    37     1     0     0
SMALL
No Charge or Current Charge


@<TRIPOS>ATOM
      1 C02         94.0600   100.2920    75.2790 ca         1 Z5G       0.126000
      2 C03         94.2040   100.4790    73.8980 ca         1 Z5G      -0.125000
      3 C04         95.4690   100.3510    73.2980 ca         1 Z5G      -0.060500
      4 C05         96.6120   100.0350    74.0720 ca         1 Z5G      -0.121600
      5 C06         96.4480    99.8500    75.4690 ca         1 Z5G      -0.060500
      6 C07         95.1790    99.9790    76.0630 ca         1 Z5G      -0.125000
      7 C08         97.9590    99.9070    73.3790 c          1 Z5G       0.597700
      8 C11        100.3840    99.4160    73.8530 cc         1 Z5G      -0.041400
      9 C13        102.6610    99.1490    72.8400 cc         1 Z5G      -0.287300
     10 C14        103.8830    99.0430    71.9570 c6         1 Z5G       0.016900
     11 C15        105.0190    98.2800    72.6760 c6         1 Z5G      -0.069400
     12 C16        105.2180    98.8260    74.1060 c6         1 Z5G      -0.074400
     13 C17        103.9410    98.6380    74.9650 c6         1 Z5G      -0.007100
     14 C18        102.6580    98.9720    74.2070 cd         1 Z5G      -0.021300
     15 C19        101.3490    99.1020    74.8070 cd         1 Z5G      -0.221600
     16 C20        101.0180    98.9210    76.2740 c          1 Z5G       0.740600
     17 N10         99.0430    99.5980    74.1820 ns         1 Z5G      -0.382100
     18 O09         98.0690   100.0720    72.1700 o          1 Z5G      -0.636100
     19 O21        101.9010    98.6060    77.0560 o          1 Z5G      -0.714000
     20 O22         99.8640    99.0790    76.6530 o          1 Z5G      -0.714000
     21 S12        101.0680    99.5340    72.2310 ss         1 Z5G       0.166000
     22 Cl01        92.4770   100.4520    76.0280 cl         1 Z5G      -0.228000
     23 H1          93.3360   100.7220    73.2900 ha         1 Z5G       0.123500
     24 H2          95.5570   100.5000    72.2230 ha         1 Z5G       0.144500
     25 H3          97.2860    99.6060    76.1160 ha         1 Z5G       0.144500
     26 H4          95.0640    99.8350    77.1340 ha         1 Z5G       0.123500
     27 H5         104.2360   100.0480    71.6860 hc         1 Z5G       0.029700
     28 H6         103.6410    98.5370    71.0120 hc         1 Z5G       0.029700
     29 H7         104.7790    97.2080    72.7190 hc         1 Z5G       0.027200
     30 H8         105.9510    98.3710    72.1020 hc         1 Z5G       0.027200
     31 H9         106.0680    98.3260    74.5880 hc         1 Z5G       0.026700
     32 H10        105.4720    99.8940    74.0540 hc         1 Z5G       0.026700
     33 H11        103.8960    97.5990    75.3170 hc         1 Z5G       0.064700
     34 H12        104.0400    99.2670    75.8590 hc         1 Z5G       0.064700
     35 H13         98.8250    99.4870    75.1690 hn         1 Z5G       0.408500
@<TRIPOS>BOND
     1     1     2 ar  
     2     1     6 ar  
     3     1    22 1   
     4     2     3 ar  
     5     2    23 1   
     6     3     4 ar  
     7     3    24 1   
     8     4     5 ar  
     9     4     7 1   
    10     5     6 ar  
    11     5    25 1   
    12     6    26 1   
    13     7    17 1   
    14     7    18 2   
    15     8    15 2   
    16     8    17 1   
    17     8    21 1   
    18     9    10 1   
    19     9    14 2   
    20     9    21 1   
    21    10    11 1   
    22    10    27 1   
    23    10    28 1   
    24    11    12 1   
    25    11    29 1   
    26    11    30 1   
    27    12    13 1   
    28    12    31 1   
    29    12    32 1   
    30    13    14 1   
    31    13    33 1   
    32    13    34 1   
    33    14    15 1   
    34    15    16 1   
    35    16    19 1   
    36    16    20 1   
    37    17    35 1   
@<TRIPOS>SUBSTRUCTURE
     1 Z5G         1 TEMP              0 ****  ****    0 ROOT
