@<TRIPOS>MOLECULE
Z5H
   51    54     1     0     0
SMALL
No Charge or Current Charge


@<TRIPOS>ATOM
      1 C01         14.3140    -6.2260   -19.7970 ca         1 Z5H      -0.113000
      2 C02         15.0810    -6.2360   -18.6190 ca         1 Z5H      -0.092500
      3 C03         14.4870    -6.4990   -17.3620 ca         1 Z5H      -0.074300
      4 C04         13.0890    -6.7170   -17.3280 ca         1 Z5H      -0.092500
      5 C05         12.3240    -6.7080   -18.5060 ca         1 Z5H      -0.113000
      6 C06         12.9310    -6.4650   -19.7480 ca         1 Z5H      -0.070300
      7 C07         12.1020    -6.4570   -21.0240 c3         1 Z5H      -0.046800
      8 C08         15.3320    -6.4870   -16.0630 c5         1 Z5H      -0.028000
      9 C09         14.7900    -7.5270   -15.0310 c5         1 Z5H      -0.070400
     10 C10         15.9660    -7.6320   -14.0180 c5         1 Z5H      -0.080900
     11 C11         17.2540    -7.3480   -14.8570 c5         1 Z5H      -0.080900
     12 C12         16.7450    -7.1090   -16.3080 c5         1 Z5H      -0.070400
     13 C13         15.3130    -5.0280   -15.5930 cc         1 Z5H       0.567300
     14 C14         15.9210    -3.0460   -15.4130 cd         1 Z5H       0.433300
     15 C15         16.6590    -1.7140   -15.4860 c3         1 Z5H       0.152500
     16 C16         17.1950    -1.4120   -13.0730 c3         1 Z5H       0.243100
     17 C17         18.2150    -0.9270   -12.0800 cc         1 Z5H      -0.218300
     18 C18         18.8760    -2.4110   -14.5970 c3         1 Z5H       0.155100
     19 C19         18.8490    -1.6450   -11.0960 cd         1 Z5H      -0.131000
     20 C20         19.8270     0.4400   -10.7190 cc         1 Z5H      -0.250000
     21 C21         19.7600    -0.8730   -10.3280 cd         1 Z5H      -0.133000
     22 N01         14.4010    -4.5240   -14.7740 nd         1 Z5H      -0.377300
     23 N02         16.2740    -4.1570   -16.0260 nc         1 Z5H      -0.709000
     24 N03         17.7270    -1.4820   -14.4560 n3         1 Z5H      -0.733600
     25 O01         14.8050    -3.1780   -14.6440 os         1 Z5H      -0.095700
     26 S01         18.7440     0.7530   -12.0730 ss         1 Z5H       0.229000
     27 H17         14.7990    -6.0280   -20.7500 ha         1 Z5H       0.111000
     28 H18         16.1440    -6.0260   -18.6970 ha         1 Z5H       0.115500
     29 H19         12.5760    -6.8900   -16.3860 ha         1 Z5H       0.115500
     30 H16         11.2520    -6.8860   -18.4490 ha         1 Z5H       0.111000
     31 H03         12.0580    -7.4580   -21.4670 hc         1 Z5H       0.042367
     32 H02         11.0730    -6.1300   -20.8300 hc         1 Z5H       0.042367
     33 H01         12.5260    -5.7770   -21.7720 hc         1 Z5H       0.042367
     34 H05         13.8600    -7.2210   -14.5390 hc         1 Z5H       0.057450
     35 H04         14.5970    -8.4980   -15.5050 hc         1 Z5H       0.057450
     36 H06         15.8600    -6.8950   -13.2130 hc         1 Z5H       0.045700
     37 H07         15.9970    -8.6180   -13.5390 hc         1 Z5H       0.045700
     38 H08         17.9680    -8.1780   -14.8120 hc         1 Z5H       0.045700
     39 H09         17.7760    -6.4630   -14.4740 hc         1 Z5H       0.045700
     40 H10         16.6750    -8.0560   -16.8570 hc         1 Z5H       0.057450
     41 H11         17.4260    -6.4630   -16.8740 hc         1 Z5H       0.057450
     42 H12         17.0920    -1.6370   -16.4920 h1         1 Z5H       0.084700
     43 H13         15.9030    -0.9200   -15.4220 h1         1 Z5H       0.084700
     44 H15         16.3360    -0.7280   -13.0350 h1         1 Z5H       0.052200
     45 H14         16.8320    -2.3990   -12.7530 h1         1 Z5H       0.052200
     46 H20         19.7070    -2.1140   -13.9450 h1         1 Z5H       0.041700
     47 H21         18.5880    -3.4390   -14.3360 h1         1 Z5H       0.041700
     48 H22         19.2500    -2.4120   -15.6300 h1         1 Z5H       0.041700
     49 H25         18.6720    -2.7030   -10.9220 ha         1 Z5H       0.132000
     50 H23         20.4280     1.2460   -10.3180 h4         1 Z5H       0.148000
     51 H24         20.3470    -1.2820    -9.5100 ha         1 Z5H       0.133000
@<TRIPOS>BOND
     1     1     2 ar  
     2     1     6 ar  
     3     1    27 1   
     4     2     3 ar  
     5     2    28 1   
     6     3     4 ar  
     7     3     8 1   
     8     4     5 ar  
     9     4    29 1   
    10     5     6 ar  
    11     5    30 1   
    12     6     7 1   
    13     7    31 1   
    14     7    32 1   
    15     7    33 1   
    16     8     9 1   
    17     8    12 1   
    18     8    13 1   
    19     9    10 1   
    20     9    34 1   
    21     9    35 1   
    22    10    11 1   
    23    10    36 1   
    24    10    37 1   
    25    11    12 1   
    26    11    38 1   
    27    11    39 1   
    28    12    40 1   
    29    12    41 1   
    30    13    22 2   
    31    13    23 1   
    32    14    15 1   
    33    14    23 2   
    34    14    25 1   
    35    15    24 1   
    36    15    42 1   
    37    15    43 1   
    38    16    17 1   
    39    16    24 1   
    40    16    44 1   
    41    16    45 1   
    42    17    19 2   
    43    17    26 1   
    44    18    24 1   
    45    18    46 1   
    46    18    47 1   
    47    18    48 1   
    48    19    21 1   
    49    19    49 1   
    50    20    21 2   
    51    20    26 1   
    52    20    50 1   
    53    21    51 1   
    54    22    25 1   
@<TRIPOS>SUBSTRUCTURE
     1 Z5H         1 TEMP              0 ****  ****    0 ROOT
