@<TRIPOS>MOLECULE
Z5H
   51    54     1     0     0
SMALL
abcg2


@<TRIPOS>ATOM
      1 C01         14.5640    -6.3860   -19.7900 ca         1 Z5H      -0.113000
      2 C02         15.2540    -6.4920   -18.5890 ca         1 Z5H      -0.092500
      3 C03         14.5790    -6.4740   -17.3740 ca         1 Z5H      -0.074300
      4 C04         13.1930    -6.3250   -17.4000 ca         1 Z5H      -0.092500
      5 C05         12.5070    -6.2190   -18.5990 ca         1 Z5H      -0.113000
      6 C06         13.1800    -6.2520   -19.8200 ca         1 Z5H      -0.070300
      7 C07         12.4340    -6.1670   -21.1190 c3         1 Z5H      -0.046800
      8 C08         15.2980    -6.5770   -16.0430 c5         1 Z5H      -0.028000
      9 C09         14.6980    -7.6390   -15.1020 c5         1 Z5H      -0.070400
     10 C10         15.7990    -7.9470   -14.0720 c5         1 Z5H      -0.080900
     11 C11         17.1070    -7.3950   -14.6750 c5         1 Z5H      -0.080900
     12 C12         16.7620    -7.0430   -16.1200 c5         1 Z5H      -0.070400
     13 C13         15.2710    -5.2150   -15.4140 cc         1 Z5H       0.567300
     14 C14         15.6720    -3.1950   -15.1210 cd         1 Z5H       0.433300
     15 C15         16.2040    -1.7940   -15.1190 c3         1 Z5H       0.152500
     16 C16         17.2240    -1.7300   -12.9080 c3         1 Z5H       0.243100
     17 C17         18.3270    -1.0480   -12.1660 cc         1 Z5H      -0.218300
     18 C18         18.5380    -2.3910   -14.8310 c3         1 Z5H       0.155100
     19 C19         19.0170    -1.4780   -11.0730 cd         1 Z5H      -0.131000
     20 C20         19.9920     0.6000   -11.3660 cc         1 Z5H      -0.250000
     21 C21         19.9730    -0.5300   -10.6100 cd         1 Z5H      -0.133000
     22 N01         14.6110    -4.9220   -14.3370 nd         1 Z5H      -0.377300
     23 N02         15.9490    -4.1510   -15.9420 nc         1 Z5H      -0.709000
     24 N03         17.4130    -1.6190   -14.3430 n3         1 Z5H      -0.733600
     25 O01         14.8690    -3.5900   -14.1410 os         1 Z5H      -0.095700
     26 S01         18.8510     0.5220   -12.6460 ss         1 Z5H       0.229000
     27 H17         15.1200    -6.4030   -20.7210 ha         1 Z5H       0.111000
     28 H18         16.3320    -6.5870   -18.6160 ha         1 Z5H       0.115500
     29 H19         12.6340    -6.2850   -16.4720 ha         1 Z5H       0.115500
     30 H16         11.4290    -6.1040   -18.5850 ha         1 Z5H       0.111000
     31 H03         12.1650    -7.1620   -21.4820 hc         1 Z5H       0.042367
     32 H02         11.5090    -5.6010   -21.0150 hc         1 Z5H       0.042367
     33 H01         13.0350    -5.6930   -21.8950 hc         1 Z5H       0.042367
     34 H05         13.7610    -7.3300   -14.6420 hc         1 Z5H       0.057450
     35 H04         14.4800    -8.5240   -15.7030 hc         1 Z5H       0.057450
     36 H06         15.5830    -7.4800   -13.1110 hc         1 Z5H       0.045700
     37 H07         15.8620    -9.0210   -13.8920 hc         1 Z5H       0.045700
     38 H08         17.9310    -8.1060   -14.6170 hc         1 Z5H       0.045700
     39 H09         17.4300    -6.5000   -14.1360 hc         1 Z5H       0.045700
     40 H10         16.8030    -7.9370   -16.7470 hc         1 Z5H       0.057450
     41 H11         17.4340    -6.3030   -16.5560 hc         1 Z5H       0.057450
     42 H12         16.4100    -1.5250   -16.1560 h1         1 Z5H       0.084700
     43 H13         15.4360    -1.1130   -14.7470 h1         1 Z5H       0.084700
     44 H15         16.2700    -1.2580   -12.6550 h1         1 Z5H       0.052200
     45 H14         17.1660    -2.7700   -12.5540 h1         1 Z5H       0.052200
     46 H20         19.4550    -2.0490   -14.3510 h1         1 Z5H       0.041700
     47 H21         18.4480    -3.4700   -14.6450 h1         1 Z5H       0.041700
     48 H22         18.6490    -2.2420   -15.9050 h1         1 Z5H       0.041700
     49 H25         18.8500    -2.4440   -10.6150 ha         1 Z5H       0.132000
     50 H23         20.6250     1.4670   -11.2490 h4         1 Z5H       0.148000
     51 H24         20.6200    -0.6900    -9.7590 ha         1 Z5H       0.133000
@<TRIPOS>BOND
     1     1     2 ar  
     2     1     6 ar  
     3     1    27 1   
     4     2     3 ar  
     5     2    28 1   
     6     3     4 ar  
     7     3     8 1   
     8     4     5 ar  
     9     4    29 1   
    10     5     6 ar  
    11     5    30 1   
    12     6     7 1   
    13     7    31 1   
    14     7    32 1   
    15     7    33 1   
    16     8     9 1   
    17     8    12 1   
    18     8    13 1   
    19     9    10 1   
    20     9    34 1   
    21     9    35 1   
    22    10    11 1   
    23    10    36 1   
    24    10    37 1   
    25    11    12 1   
    26    11    38 1   
    27    11    39 1   
    28    12    40 1   
    29    12    41 1   
    30    13    22 2   
    31    13    23 1   
    32    14    15 1   
    33    14    23 2   
    34    14    25 1   
    35    15    24 1   
    36    15    42 1   
    37    15    43 1   
    38    16    17 1   
    39    16    24 1   
    40    16    44 1   
    41    16    45 1   
    42    17    19 2   
    43    17    26 1   
    44    18    24 1   
    45    18    46 1   
    46    18    47 1   
    47    18    48 1   
    48    19    21 1   
    49    19    49 1   
    50    20    21 2   
    51    20    26 1   
    52    20    50 1   
    53    21    51 1   
    54    22    25 1   
@<TRIPOS>SUBSTRUCTURE
     1 Z5H         1 TEMP              0 ****  ****    0 ROOT
