@<TRIPOS>MOLECULE
Z5I
   22    23     1     0     0
SMALL
abcg2


@<TRIPOS>ATOM
      1 C4         -10.1580    -1.4500   -10.2980 cc         1 Z5I      -0.043200
      2 C5          -9.7930    -2.7180    -9.9100 cd         1 Z5I      -0.194100
      3 C6          -9.4640    -1.4440    -8.1120 ca         1 Z5I      -0.056200
      4 C7          -9.1540    -0.9530    -6.8450 ca         1 Z5I      -0.145000
      5 C8          -9.3390     0.3980    -6.6240 ca         1 Z5I      -0.104000
      6 C10        -10.1270     0.7490    -8.8910 ca         1 Z5I      -0.041000
      7 O          -11.4650    -2.0490   -14.9120 o          1 Z5I      -0.728000
      8 C          -11.3760    -1.2170   -13.9830 c          1 Z5I       0.698200
      9 O2         -11.6810    -0.0060   -14.0320 o          1 Z5I      -0.728000
     10 C2         -10.8410    -1.7590   -12.6790 cf         1 Z5I      -0.233200
     11 C3         -10.6580    -1.0100   -11.5860 ce         1 Z5I      -0.215000
     12 N           -9.3820    -2.7110    -8.6140 na         1 Z5I      -0.232700
     13 C11         -9.9500    -0.6160    -9.1450 ca         1 Z5I      -0.093800
     14 C9          -9.8210     1.2420    -7.6380 ca         1 Z5I      -0.167000
     15 H5          -9.8010    -3.6380   -10.4730 h4         1 Z5I       0.212000
     16 H1          -8.7820    -1.6050    -6.0640 ha         1 Z5I       0.097000
     17 H2          -9.1080     0.8140    -5.6510 ha         1 Z5I       0.092000
     18 H4         -10.4980     1.4130    -9.6630 ha         1 Z5I       0.124000
     19 H7         -10.5990    -2.8190   -12.6570 ha         1 Z5I       0.136000
     20 H6         -10.9090     0.0450   -11.6570 ha         1 Z5I       0.189000
     21 H55         -9.0690    -3.5220    -8.1060 hn         1 Z5I       0.333000
     22 H3          -9.9550     2.2960    -7.4300 ha         1 Z5I       0.098000
@<TRIPOS>BOND
     1     1     2 2   
     2     1    11 1   
     3     1    13 1   
     4     2    12 1   
     5     2    15 1   
     6     3     4 ar  
     7     3    12 1   
     8     3    13 ar  
     9     4     5 ar  
    10     4    16 1   
    11     5    14 ar  
    12     5    17 1   
    13     6    13 ar  
    14     6    14 ar  
    15     6    18 1   
    16     7     8 1   
    17     8     9 1   
    18     8    10 1   
    19    10    11 2   
    20    10    19 1   
    21    11    20 1   
    22    12    21 1   
    23    14    22 1   
@<TRIPOS>SUBSTRUCTURE
     1 Z5I         1 TEMP              0 ****  ****    0 ROOT
