@<TRIPOS>MOLECULE
Z5I
   22    23     1     0     0
SMALL
No Charge or Current Charge


@<TRIPOS>ATOM
      1 C4         -10.1560    -1.4300   -10.2880 cc         1 Z5I      -0.043200
      2 C5          -9.7910    -2.7250    -9.9280 cd         1 Z5I      -0.194100
      3 C6          -9.4640    -1.4500    -8.1260 ca         1 Z5I      -0.056200
      4 C7          -9.1520    -0.9610    -6.8500 ca         1 Z5I      -0.145000
      5 C8          -9.3390     0.4140    -6.6000 ca         1 Z5I      -0.104000
      6 C10        -10.1340     0.7440    -8.8960 ca         1 Z5I      -0.041000
      7 O          -11.5040    -2.0590   -14.9030 o          1 Z5I      -0.728000
      8 C          -11.3760    -1.2420   -14.0050 c          1 Z5I       0.698200
      9 O2         -11.6440    -0.0570   -14.1260 o          1 Z5I      -0.728000
     10 C2         -10.8620    -1.7370   -12.6930 cf         1 Z5I      -0.233200
     11 C3         -10.6570    -0.9700   -11.5790 ce         1 Z5I      -0.215000
     12 N           -9.3570    -2.7500    -8.5800 na         1 Z5I      -0.232700
     13 C11         -9.9370    -0.6300    -9.1120 ca         1 Z5I      -0.093800
     14 C9          -9.8280     1.2640    -7.6190 ca         1 Z5I      -0.167000
     15 H5          -9.8090    -3.6270   -10.5330 h4         1 Z5I       0.212000
     16 H1          -8.7770    -1.6220    -6.0730 ha         1 Z5I       0.097000
     17 H2          -9.1060     0.8230    -5.6190 ha         1 Z5I       0.092000
     18 H4         -10.5100     1.3910    -9.6830 ha         1 Z5I       0.124000
     19 H7         -10.6420    -2.8010   -12.6490 ha         1 Z5I       0.136000
     20 H6         -10.8810     0.0970   -11.6350 ha         1 Z5I       0.189000
     21 H55         -9.0330    -3.5560    -8.0530 hn         1 Z5I       0.333000
     22 H3          -9.9700     2.3230    -7.4200 ha         1 Z5I       0.098000
@<TRIPOS>BOND
     1     1     2 2   
     2     1    11 1   
     3     1    13 1   
     4     2    12 1   
     5     2    15 1   
     6     3     4 ar  
     7     3    12 1   
     8     3    13 ar  
     9     4     5 ar  
    10     4    16 1   
    11     5    14 ar  
    12     5    17 1   
    13     6    13 ar  
    14     6    14 ar  
    15     6    18 1   
    16     7     8 1   
    17     8     9 1   
    18     8    10 1   
    19    10    11 2   
    20    10    19 1   
    21    11    20 1   
    22    12    21 1   
    23    14    22 1   
@<TRIPOS>SUBSTRUCTURE
     1 Z5I         1 TEMP              0 ****  ****    0 ROOT
