@<TRIPOS>MOLECULE
Z5J
   22    22     1     0     0
SMALL
No Charge or Current Charge


@<TRIPOS>ATOM
      1 O4          19.9710     8.6850    13.8720 oh         1 Z5J      -0.716000
      2 C4          19.0340     9.1820    12.8980 c6         1 Z5J       0.141300
      3 C5          18.0540     8.0750    12.3890 c6         1 Z5J       0.189300
      4 C6          18.7720     6.9300    11.6350 c3         1 Z5J      -0.081100
      5 O5          17.1040     8.6500    11.4610 os         1 Z5J      -0.492000
      6 C3          18.2090    10.3530    13.5110 c6         1 Z5J       0.134300
      7 O3          19.0780    11.4280    13.8960 oh         1 Z5J      -0.664000
      8 C2          17.1560    10.8520    12.4980 c6         1 Z5J      -0.182400
      9 C1          16.2800     9.6680    12.0310 c6         1 Z5J       0.398300
     10 O1          15.4380    10.0720    10.9800 oh         1 Z5J      -0.630000
     11 HO1         15.7120     9.4820    10.2480 ho         1 Z5J       0.453000
     12 H4          19.5800     9.5720    12.0250 h1         1 Z5J       0.055700
     13 H5          17.5030     7.6460    13.2390 h1         1 Z5J       0.041700
     14 H61         18.0510     6.1930    11.2630 hc         1 Z5J       0.049700
     15 H62         19.3390     7.3120    10.7770 hc         1 Z5J       0.049700
     16 H63         19.4730     6.4020    12.2920 hc         1 Z5J       0.049700
     17 H3          17.6760     9.9730    14.3970 h1         1 Z5J       0.041700
     18 HO3         18.5050    12.1530    14.2320 ho         1 Z5J       0.450000
     19 H21         16.5200    11.6220    12.9550 hc         1 Z5J       0.062700
     20 H22         17.6510    11.3140    11.6330 hc         1 Z5J       0.062700
     21 H1          15.6900     9.2610    12.8690 h2         1 Z5J       0.064700
     22 HO4         20.3150     9.4960    14.3200 ho         1 Z5J       0.521000
@<TRIPOS>BOND
     1     1     2 1   
     2     1    22 1   
     3     2     3 1   
     4     2     6 1   
     5     2    12 1   
     6     3     4 1   
     7     3     5 1   
     8     3    13 1   
     9     4    14 1   
    10     4    15 1   
    11     4    16 1   
    12     5     9 1   
    13     6     7 1   
    14     6     8 1   
    15     6    17 1   
    16     7    18 1   
    17     8     9 1   
    18     8    19 1   
    19     8    20 1   
    20     9    10 1   
    21     9    21 1   
    22    10    11 1   
@<TRIPOS>SUBSTRUCTURE
     1 Z5J         1 TEMP              0 ****  ****    0 ROOT
