@<TRIPOS>MOLECULE
Z5J
   22    22     1     0     0
SMALL
bcc


@<TRIPOS>ATOM
      1 O4          19.8880     8.6760    13.8180 oh         1 Z5J      -0.593800
      2 C4          18.9960     9.2010    12.8660 c6         1 Z5J       0.118100
      3 C5          18.0650     8.0730    12.4130 c6         1 Z5J       0.166100
      4 C6          18.8060     6.9230    11.7640 c3         1 Z5J      -0.081100
      5 O5          17.1330     8.5700    11.4720 os         1 Z5J      -0.445600
      6 C3          18.1660    10.3430    13.4370 c6         1 Z5J       0.111100
      7 O3          19.0530    11.3890    13.7730 oh         1 Z5J      -0.601800
      8 C2          17.1140    10.7750    12.4240 c6         1 Z5J      -0.182400
      9 C1          16.2860     9.5780    11.9810 c6         1 Z5J       0.351900
     10 O1          15.3490     9.8840    11.0130 oh         1 Z5J      -0.567800
     11 HO1         15.7620    10.4260    10.3310 ho         1 Z5J       0.414000
     12 H4          19.5340     9.5750    11.9780 h1         1 Z5J       0.055700
     13 H5          17.5270     7.7000    13.3000 h1         1 Z5J       0.041700
     14 H61         18.1080     6.1470    11.4500 hc         1 Z5J       0.049700
     15 H62         19.3620     7.2600    10.8870 hc         1 Z5J       0.049700
     16 H63         19.5100     6.4730    12.4600 hc         1 Z5J       0.049700
     17 H3          17.6580     9.9670    14.3380 h1         1 Z5J       0.041700
     18 HO3         18.5810    12.0300    14.3120 ho         1 Z5J       0.411000
     19 H21         16.4590    11.5330    12.8630 hc         1 Z5J       0.062700
     20 H22         17.6060    11.2200    11.5520 hc         1 Z5J       0.062700
     21 H1          15.7240     9.1770    12.8380 h2         1 Z5J       0.064700
     22 HO4         20.4260     9.4010    14.1510 ho         1 Z5J       0.422000
@<TRIPOS>BOND
     1     1     2 1   
     2     1    22 1   
     3     2     3 1   
     4     2     6 1   
     5     2    12 1   
     6     3     4 1   
     7     3     5 1   
     8     3    13 1   
     9     4    14 1   
    10     4    15 1   
    11     4    16 1   
    12     5     9 1   
    13     6     7 1   
    14     6     8 1   
    15     6    17 1   
    16     7    18 1   
    17     8     9 1   
    18     8    19 1   
    19     8    20 1   
    20     9    10 1   
    21     9    21 1   
    22    10    11 1   
@<TRIPOS>SUBSTRUCTURE
     1 Z5J         1 TEMP              0 ****  ****    0 ROOT
