@<TRIPOS>MOLECULE
Z5K
   40    40     1     0     0
SMALL
No Charge or Current Charge


@<TRIPOS>ATOM
      1 O01         -0.0220     2.5920    -0.2720 o          1 Z5K      -0.528000
      2 S02          0.0480     1.4060    -1.1300 sy         1 Z5K       1.153600
      3 N03          1.0470     0.3330    -0.3390 n7         1 Z5K      -0.870300
      4 C04          2.4990     0.4310    -0.6010 c3         1 Z5K       0.194800
      5 C05          3.2940    -0.6170     0.2310 c3         1 Z5K       0.171800
      6 N06          4.7580    -0.7320    -0.0730 n3         1 Z5K      -0.746600
      7 C07          5.4900     0.5490     0.1510 c3         1 Z5K       0.174300
      8 C08          6.9490     0.5700    -0.3500 c3         1 Z5K      -0.090600
      9 C09          5.3990    -1.8890     0.6200 c3         1 Z5K       0.174300
     10 C10          4.8230    -3.2740     0.2610 c3         1 Z5K      -0.090600
     11 C11         -1.4950     0.5000    -1.0150 ca         1 Z5K      -0.314500
     12 C12         -2.2330     0.5300     0.1850 ca         1 Z5K       0.028000
     13 C13         -3.4460    -0.1840     0.2950 ca         1 Z5K      -0.218300
     14 C14         -4.2480    -0.1390     1.5990 c3         1 Z5K       0.359300
     15 F15         -5.0530     0.9470     1.6420 f          1 Z5K      -0.111000
     16 F16         -5.0400    -1.2240     1.7590 f          1 Z5K      -0.111000
     17 F17         -3.4490    -0.0820     2.6890 f          1 Z5K      -0.111000
     18 C18         -3.9170    -0.9160    -0.8170 ca         1 Z5K      -0.011000
     19 C19         -3.1780    -0.9460    -2.0110 ca         1 Z5K      -0.135000
     20 C20         -1.9670    -0.2430    -2.1150 ca         1 Z5K       0.014000
     21 O21          0.4980     1.4500    -2.5220 o          1 Z5K      -0.528000
     22 H03          0.6870    -0.5620    -0.6670 hn         1 Z5K       0.481000
     23 H041         2.7160     0.2640    -1.6650 h1         1 Z5K       0.059200
     24 H042         2.8540     1.4370    -0.3420 h1         1 Z5K       0.059200
     25 H051         3.1520    -0.3880     1.2960 h1         1 Z5K       0.043200
     26 H052         2.8040    -1.5810     0.0480 h1         1 Z5K       0.043200
     27 H071         4.9800     1.3650    -0.3770 h1         1 Z5K       0.032200
     28 H072         5.4820     0.8060     1.2190 h1         1 Z5K       0.032200
     29 H091         6.4650    -1.9320     0.3620 h1         1 Z5K       0.032200
     30 H092         5.3410    -1.7560     1.7090 h1         1 Z5K       0.032200
     31 H081         7.5970    -0.0620     0.2680 hc         1 Z5K       0.037367
     32 H082         7.0070     0.2270    -1.3900 hc         1 Z5K       0.037367
     33 H083         7.3450     1.5910    -0.3060 hc         1 Z5K       0.037367
     34 H101         4.7770    -3.4050    -0.8270 hc         1 Z5K       0.037367
     35 H102         5.4640    -4.0630     0.6720 hc         1 Z5K       0.037367
     36 H103         3.8190    -3.4140     0.6770 hc         1 Z5K       0.037367
     37 H12         -1.8630     1.1070     1.0330 ha         1 Z5K       0.148000
     38 H20         -1.4090    -0.2780    -3.0500 ha         1 Z5K       0.143000
     39 H18         -4.8560    -1.4630    -0.7630 ha         1 Z5K       0.135000
     40 H19         -3.5470    -1.5140    -2.8610 ha         1 Z5K       0.129000
@<TRIPOS>BOND
     1     1     2 2   
     2     2     3 1   
     3     2    11 1   
     4     2    21 2   
     5     3     4 1   
     6     3    22 1   
     7     4     5 1   
     8     4    23 1   
     9     4    24 1   
    10     5     6 1   
    11     5    25 1   
    12     5    26 1   
    13     6     7 1   
    14     6     9 1   
    15     7     8 1   
    16     7    27 1   
    17     7    28 1   
    18     8    31 1   
    19     8    32 1   
    20     8    33 1   
    21     9    10 1   
    22     9    29 1   
    23     9    30 1   
    24    10    34 1   
    25    10    35 1   
    26    10    36 1   
    27    11    12 ar  
    28    11    20 ar  
    29    12    13 ar  
    30    12    37 1   
    31    13    14 1   
    32    13    18 ar  
    33    14    15 1   
    34    14    16 1   
    35    14    17 1   
    36    18    19 ar  
    37    18    39 1   
    38    19    20 ar  
    39    19    40 1   
    40    20    38 1   
@<TRIPOS>SUBSTRUCTURE
     1 Z5K         1 TEMP              0 ****  ****    0 ROOT
