@<TRIPOS>MOLECULE
Z5K
   40    40     1     0     0
SMALL
bcc


@<TRIPOS>ATOM
      1 O01         -0.6490     2.7690     1.3360 o          1 Z5K      -0.598800
      2 S02          0.0630     2.1230     0.2470 sy         1 Z5K       1.295200
      3 N03          1.2990     1.2900     0.9320 n7         1 Z5K      -0.815100
      4 C04          2.1620     0.4640     0.0900 c3         1 Z5K       0.194800
      5 C05          3.4080     0.0700     0.8710 c3         1 Z5K       0.171800
      6 N06          4.3010    -0.7100     0.0360 n3         1 Z5K      -0.746600
      7 C07          5.1820     0.1350    -0.7560 c3         1 Z5K       0.174300
      8 C08          5.6700    -0.5410    -2.0260 c3         1 Z5K      -0.090600
      9 C09          5.0180    -1.7340     0.7820 c3         1 Z5K       0.174300
     10 C10          4.1450    -2.9320     1.1140 c3         1 Z5K      -0.090600
     11 C11         -1.0210     0.9160    -0.4800 ca         1 Z5K      -0.314500
     12 C12         -2.0140     0.3470     0.3020 ca         1 Z5K       0.010000
     13 C13         -2.8310    -0.6270    -0.2550 ca         1 Z5K      -0.218300
     14 C14         -3.9390    -1.2080     0.5700 c3         1 Z5K       0.723200
     15 F15         -5.0170    -0.4120     0.5680 f          1 Z5K      -0.232300
     16 F16         -4.3330    -2.4010     0.1200 f          1 Z5K      -0.232300
     17 F17         -3.5790    -1.3650     1.8490 f          1 Z5K      -0.232300
     18 C18         -2.6550    -1.0190    -1.5770 ca         1 Z5K      -0.029000
     19 C19         -1.6560    -0.4390    -2.3430 ca         1 Z5K      -0.153000
     20 C20         -0.8330     0.5350    -1.8010 ca         1 Z5K      -0.004000
     21 O21          0.6210     2.9120    -0.8370 o          1 Z5K      -0.598800
     22 H03          1.0120     0.8350     1.7940 hn         1 Z5K       0.425800
     23 H041         1.6530    -0.4420    -0.2540 h1         1 Z5K       0.059200
     24 H042         2.4400     1.0430    -0.7910 h1         1 Z5K       0.059200
     25 H051         3.8920     0.9710     1.2760 h1         1 Z5K       0.043200
     26 H052         3.1020    -0.5260     1.7340 h1         1 Z5K       0.043200
     27 H071         4.6300     1.0340    -1.0390 h1         1 Z5K       0.032200
     28 H072         6.0420     0.4860    -0.1630 h1         1 Z5K       0.032200
     29 H091         5.8540    -2.0770     0.1710 h1         1 Z5K       0.032200
     30 H092         5.4670    -1.3270     1.7020 h1         1 Z5K       0.032200
     31 H081         6.2680    -1.4300    -1.8220 hc         1 Z5K       0.037367
     32 H082         4.8270    -0.8410    -2.6500 hc         1 Z5K       0.037367
     33 H083         6.2930     0.1430    -2.6030 hc         1 Z5K       0.037367
     34 H101         3.7620    -3.3930     0.2030 hc         1 Z5K       0.037367
     35 H102         4.7180    -3.6810     1.6620 hc         1 Z5K       0.037367
     36 H103         3.2890    -2.6600     1.7340 hc         1 Z5K       0.037367
     37 H12         -2.1500     0.6630     1.3280 ha         1 Z5K       0.166000
     38 H20         -0.0620     0.9900    -2.4080 ha         1 Z5K       0.161000
     39 H18         -3.2880    -1.7740    -2.0230 ha         1 Z5K       0.153000
     40 H19         -1.5200    -0.7450    -3.3710 ha         1 Z5K       0.147000
@<TRIPOS>BOND
     1     1     2 2   
     2     2     3 1   
     3     2    11 1   
     4     2    21 2   
     5     3     4 1   
     6     3    22 1   
     7     4     5 1   
     8     4    23 1   
     9     4    24 1   
    10     5     6 1   
    11     5    25 1   
    12     5    26 1   
    13     6     7 1   
    14     6     9 1   
    15     7     8 1   
    16     7    27 1   
    17     7    28 1   
    18     8    31 1   
    19     8    32 1   
    20     8    33 1   
    21     9    10 1   
    22     9    29 1   
    23     9    30 1   
    24    10    34 1   
    25    10    35 1   
    26    10    36 1   
    27    11    12 ar  
    28    11    20 ar  
    29    12    13 ar  
    30    12    37 1   
    31    13    14 1   
    32    13    18 ar  
    33    14    15 1   
    34    14    16 1   
    35    14    17 1   
    36    18    19 ar  
    37    18    39 1   
    38    19    20 ar  
    39    19    40 1   
    40    20    38 1   
@<TRIPOS>SUBSTRUCTURE
     1 Z5K         1 TEMP              0 ****  ****    0 ROOT
