@<TRIPOS>MOLECULE
Z5L
   27    27     1     0     0
SMALL
No Charge or Current Charge


@<TRIPOS>ATOM
      1 S2           2.7080    -5.6730    -0.3690 sh         1 Z5L      -0.435800
      2 C2           2.8810    -7.0580     0.9070 c6         1 Z5L       0.072300
      3 C1           3.9950    -8.0650     0.4930 c6         1 Z5L       0.393300
      4 O1           4.3160    -8.9490     1.5850 os         1 Z5L      -0.483000
      5 C1M          5.4470    -9.8170     1.3900 c3         1 Z5L       0.147900
      6 O5           3.5750    -8.8480    -0.6500 os         1 Z5L      -0.453000
      7 C3           1.5310    -7.8050     1.1080 c6         1 Z5L       0.178300
      8 O3           0.4620    -6.8880     1.4010 oh         1 Z5L      -0.663000
      9 C4           1.1650    -8.6580    -0.1430 c6         1 Z5L       0.100300
     10 O4          -0.0690    -9.3750     0.1020 oh         1 Z5L      -0.725000
     11 C5           2.3550    -9.6170    -0.4640 c6         1 Z5L       0.144300
     12 C6           2.1190   -10.4700    -1.7560 c3         1 Z5L       0.168600
     13 O6           3.2320   -11.3220    -2.0900 oh         1 Z5L      -0.707000
     14 H2           3.1720    -6.6080     1.8660 h1         1 Z5L       0.095700
     15 H1           4.8950    -7.4900     0.2250 h2         1 Z5L       0.088700
     16 H31          5.6180   -10.4260     2.2870 h1         1 Z5L       0.038700
     17 H32          5.2810   -10.4970     0.5450 h1         1 Z5L       0.038700
     18 H33          6.3570    -9.2350     1.1940 h1         1 Z5L       0.038700
     19 H3           1.6590    -8.4970     1.9540 h1         1 Z5L       0.066700
     20 HO3         -0.3580    -7.4160     1.2620 ho         1 Z5L       0.463000
     21 H4           1.0390    -7.9770    -1.0000 h1         1 Z5L       0.069700
     22 HO4         -0.4780    -9.5790    -0.7730 ho         1 Z5L       0.509000
     23 H5           2.4960   -10.3140     0.3750 h1         1 Z5L       0.071700
     24 H61          1.2190   -11.0820    -1.6070 h1         1 Z5L       0.025700
     25 H62          1.9110    -9.7820    -2.5870 h1         1 Z5L       0.025700
     26 HO6          3.0190   -11.7490    -2.9520 ho         1 Z5L       0.503000
     27 HS2          1.5760    -5.1600     0.1770 hs         1 Z5L       0.224800
@<TRIPOS>BOND
     1     1     2 1   
     2     1    27 1   
     3     2     3 1   
     4     2     7 1   
     5     2    14 1   
     6     3     4 1   
     7     3     6 1   
     8     3    15 1   
     9     4     5 1   
    10     5    16 1   
    11     5    17 1   
    12     5    18 1   
    13     6    11 1   
    14     7     8 1   
    15     7     9 1   
    16     7    19 1   
    17     8    20 1   
    18     9    10 1   
    19     9    11 1   
    20     9    21 1   
    21    10    22 1   
    22    11    12 1   
    23    11    23 1   
    24    12    13 1   
    25    12    24 1   
    26    12    25 1   
    27    13    26 1   
@<TRIPOS>SUBSTRUCTURE
     1 Z5L         1 TEMP              0 ****  ****    0 ROOT
