@<TRIPOS>MOLECULE
Z5L
   27    27     1     0     0
SMALL
bcc


@<TRIPOS>ATOM
      1 S2           2.6980    -5.8760    -0.4620 sh         1 Z5L      -0.387900
      2 C2           2.8150    -7.1300     0.8660 c6         1 Z5L       0.024400
      3 C1           3.9240    -8.0990     0.4600 c6         1 Z5L       0.346900
      4 O1           4.2060    -8.8970     1.5630 os         1 Z5L      -0.436600
      5 C1M          5.3210    -9.7500     1.3890 c3         1 Z5L       0.124700
      6 O5           3.5500    -8.8370    -0.6650 os         1 Z5L      -0.406600
      7 C3           1.5120    -7.8890     1.0760 c6         1 Z5L       0.155100
      8 O3           0.4950    -6.9680     1.3700 oh         1 Z5L      -0.600800
      9 C4           1.1820    -8.7390    -0.1460 c6         1 Z5L       0.077100
     10 O4           0.0480    -9.5170     0.1760 oh         1 Z5L      -0.602800
     11 C5           2.3790    -9.6270    -0.5060 c6         1 Z5L       0.121100
     12 C6           2.1630   -10.3720    -1.8050 c3         1 Z5L       0.145400
     13 O6           3.2450   -11.2480    -2.0130 oh         1 Z5L      -0.584800
     14 H2           3.1100    -6.6160     1.7820 h1         1 Z5L       0.095700
     15 H1           4.8210    -7.5440     0.1520 h2         1 Z5L       0.088700
     16 H31          5.5440   -10.1910     2.3580 h1         1 Z5L       0.038700
     17 H32          5.1220   -10.5550     0.6770 h1         1 Z5L       0.038700
     18 H33          6.2010    -9.1950     1.0480 h1         1 Z5L       0.038700
     19 H3           1.6690    -8.5710     1.9260 h1         1 Z5L       0.066700
     20 HO3         -0.3220    -7.4640     1.4880 ho         1 Z5L       0.424000
     21 H4           0.9700    -8.0680    -0.9890 h1         1 Z5L       0.069700
     22 HO4         -0.4900    -9.6280    -0.6120 ho         1 Z5L       0.410000
     23 H5           2.5190   -10.3640     0.2980 h1         1 Z5L       0.071700
     24 H61          1.2140   -10.9180    -1.7360 h1         1 Z5L       0.025700
     25 H62          2.0610    -9.6460    -2.6230 h1         1 Z5L       0.025700
     26 HO6          3.0980   -11.7090    -2.8440 ho         1 Z5L       0.404000
     27 HS2          2.0670    -4.9400     0.2520 hs         1 Z5L       0.224800
@<TRIPOS>BOND
     1     1     2 1   
     2     1    27 1   
     3     2     3 1   
     4     2     7 1   
     5     2    14 1   
     6     3     4 1   
     7     3     6 1   
     8     3    15 1   
     9     4     5 1   
    10     5    16 1   
    11     5    17 1   
    12     5    18 1   
    13     6    11 1   
    14     7     8 1   
    15     7     9 1   
    16     7    19 1   
    17     8    20 1   
    18     9    10 1   
    19     9    11 1   
    20     9    21 1   
    21    10    22 1   
    22    11    12 1   
    23    11    23 1   
    24    12    13 1   
    25    12    24 1   
    26    12    25 1   
    27    13    26 1   
@<TRIPOS>SUBSTRUCTURE
     1 Z5L         1 TEMP              0 ****  ****    0 ROOT
