@<TRIPOS>MOLECULE
Z5P
   24    25     1     0     0
SMALL
No Charge or Current Charge


@<TRIPOS>ATOM
      1 N13          0.0680    -2.7380     0.4410 n8         1 Z5P      -0.991200
      2 C10         -2.5060    -0.6290    -0.2540 ca         1 Z5P      -0.086000
      3 N4           1.0210     0.5230     0.1510 na         1 Z5P       0.220000
      4 C9          -3.1970     0.5300     0.1360 ca         1 Z5P      -0.106000
      5 C8          -2.4840     1.6750     0.5240 ca         1 Z5P      -0.101000
      6 C7          -1.0800     1.6580     0.5260 ca         1 Z5P      -0.116000
      7 C6          -0.3760     0.4980     0.1410 ca         1 Z5P       0.008800
      8 C3           1.7700     1.2680    -0.7460 cc         1 Z5P      -0.160000
      9 C12         -0.3820    -1.9330    -0.7080 c3         1 Z5P       0.198100
     10 C2           3.0440     1.0400    -0.3050 cd         1 Z5P      -0.231000
     11 C1           2.9670     0.1950     0.8290 cd         1 Z5P       0.239900
     12 C11         -1.0950    -0.6590    -0.2580 ca         1 Z5P      -0.051300
     13 N5           1.7240    -0.1290     1.1410 nc         1 Z5P      -0.527800
     14 H9          -4.2850     0.5410     0.1350 ha         1 Z5P       0.118000
     15 H8          -3.0190     2.5740     0.8250 ha         1 Z5P       0.119000
     16 H10         -3.0680    -1.5100    -0.5550 ha         1 Z5P       0.123000
     17 H7          -0.5330     2.5490     0.8300 ha         1 Z5P       0.123000
     18 H2           3.9550     1.4390    -0.7390 ha         1 Z5P       0.147000
     19 H1           3.7820    -0.1820     1.4340 h4         1 Z5P       0.037100
     20 H3           1.3540     1.8480    -1.5600 h4         1 Z5P       0.157000
     21 H121         0.4920    -1.6730    -1.3230 h1         1 Z5P       0.035700
     22 H122        -1.0550    -2.5450    -1.3250 h1         1 Z5P       0.035700
     23 H131         0.6520    -3.5100     0.0990 hn         1 Z5P       0.403500
     24 H132         0.7250    -2.1550     0.9790 hn         1 Z5P       0.403500
@<TRIPOS>BOND
     1     1     9 1   
     2     1    23 1   
     3     1    24 1   
     4     2     4 ar  
     5     2    12 ar  
     6     2    16 1   
     7     3     7 1   
     8     3     8 1   
     9     3    13 1   
    10     4     5 ar  
    11     4    14 1   
    12     5     6 ar  
    13     5    15 1   
    14     6     7 ar  
    15     6    17 1   
    16     7    12 ar  
    17     8    10 2   
    18     8    20 1   
    19     9    12 1   
    20     9    21 1   
    21     9    22 1   
    22    10    11 1   
    23    10    18 1   
    24    11    13 2   
    25    11    19 1   
@<TRIPOS>SUBSTRUCTURE
     1 Z5P         1 TEMP              0 ****  ****    0 ROOT
