@<TRIPOS>MOLECULE
Z5P
   24    25     1     0     0
SMALL
bcc


@<TRIPOS>ATOM
      1 N13         -0.1080    -2.7750     0.5520 n8         1 Z5P      -0.880800
      2 C10         -2.4450    -0.6620    -0.1950 ca         1 Z5P      -0.104000
      3 N4           1.0240     0.5760     0.0780 na         1 Z5P       0.169300
      4 C9          -3.1570     0.4830     0.1250 ca         1 Z5P      -0.124000
      5 C8          -2.4780     1.6570     0.4230 ca         1 Z5P      -0.119000
      6 C7          -1.0930     1.6670     0.4110 ca         1 Z5P      -0.134000
      7 C6          -0.3900     0.5120     0.0850 ca         1 Z5P       0.008800
      8 C3           1.7890     1.4810    -0.5710 cc         1 Z5P      -0.127300
      9 C12         -0.3310    -1.9400    -0.6210 c3         1 Z5P       0.198100
     10 C2           3.0940     1.1960    -0.2550 cd         1 Z5P      -0.314300
     11 C1           3.0070     0.0880     0.6060 cd         1 Z5P       0.305200
     12 C11         -1.0520    -0.6730    -0.2410 ca         1 Z5P      -0.051300
     13 N5           1.7550    -0.2740     0.8030 nc         1 Z5P      -0.527800
     14 H9          -4.2380     0.4600     0.1390 ha         1 Z5P       0.136000
     15 H8          -3.0210     2.5570     0.6760 ha         1 Z5P       0.137000
     16 H10         -2.9790    -1.5720    -0.4410 ha         1 Z5P       0.141000
     17 H7          -0.5530     2.5680     0.6710 ha         1 Z5P       0.141000
     18 H2           3.9780     1.7080    -0.5950 ha         1 Z5P       0.165000
     19 H1           3.8090    -0.4500     1.0880 h4         1 Z5P       0.037100
     20 H3           1.3550     2.2340    -1.2090 h4         1 Z5P       0.175000
     21 H121         0.5840    -1.6940    -1.1730 h1         1 Z5P       0.035700
     22 H122        -0.9670    -2.4930    -1.3140 h1         1 Z5P       0.035700
     23 H131         0.2940    -3.6550     0.2520 hn         1 Z5P       0.348300
     24 H132         0.5980    -2.3260     1.1240 hn         1 Z5P       0.348300
@<TRIPOS>BOND
     1     1     9 1   
     2     1    23 1   
     3     1    24 1   
     4     2     4 ar  
     5     2    12 ar  
     6     2    16 1   
     7     3     7 1   
     8     3     8 1   
     9     3    13 1   
    10     4     5 ar  
    11     4    14 1   
    12     5     6 ar  
    13     5    15 1   
    14     6     7 ar  
    15     6    17 1   
    16     7    12 ar  
    17     8    10 2   
    18     8    20 1   
    19     9    12 1   
    20     9    21 1   
    21     9    22 1   
    22    10    11 1   
    23    10    18 1   
    24    11    13 2   
    25    11    19 1   
@<TRIPOS>SUBSTRUCTURE
     1 Z5P         1 TEMP              0 ****  ****    0 ROOT
