@<TRIPOS>MOLECULE
Z5X
   49    51     1     0     0
SMALL
abcg2


@<TRIPOS>ATOM
      1 C01         70.5670    45.7430   -15.3470 c3         1 Z5X       0.104300
      2 C03         70.3760    45.4250   -12.9090 ca         1 Z5X      -0.061000
      3 C04         69.3430    46.0260   -12.2000 ca         1 Z5X      -0.080000
      4 C05         69.5740    46.5530   -10.9390 ca         1 Z5X      -0.145000
      5 C06         70.8500    46.4800   -10.4140 ca         1 Z5X       0.177000
      6 C08         71.8980    45.9020   -11.1040 ca         1 Z5X      -0.145000
      7 C09         71.6510    45.3700   -12.3600 ca         1 Z5X      -0.080000
      8 C10         69.4330    43.8100   -14.4590 c          1 Z5X       0.654100
      9 C12         68.5990    41.9230   -13.3840 ca         1 Z5X       0.197100
     10 C13         69.4530    40.8860   -13.7420 ca         1 Z5X      -0.045000
     11 C15         71.7720    41.5020   -13.0140 c5         1 Z5X       0.089000
     12 C16         73.0160    41.7290   -13.8670 c5         1 Z5X       0.080000
     13 C19         71.3990    40.7330   -15.1900 c          1 Z5X       0.603000
     14 C21         68.9550    39.5900   -13.7950 ca         1 Z5X      -0.022000
     15 C22         67.6270    39.3410   -13.4960 ca         1 Z5X      -0.201300
     16 C23         67.0670    37.9520   -13.5570 c3         1 Z5X       0.363300
     17 C27         66.7820    40.3800   -13.1240 ca         1 Z5X      -0.007000
     18 C28         67.2660    41.6760   -13.0690 ca         1 Z5X      -0.205300
     19 C29         66.3740    42.8170   -12.6750 c3         1 Z5X       0.370300
     20 F07         71.0780    46.9900    -9.1950 f          1 Z5X      -0.173000
     21 F24         66.0400    37.8790   -14.4120 f          1 Z5X      -0.108667
     22 F25         67.9710    37.0530   -13.9510 f          1 Z5X      -0.108667
     23 F26         66.6060    37.5530   -12.3650 f          1 Z5X      -0.108667
     24 F30         66.7760    43.3830   -11.5310 f          1 Z5X      -0.107667
     25 F31         65.1110    42.4250   -12.4960 f          1 Z5X      -0.107667
     26 F32         66.3530    43.7780   -13.6070 f          1 Z5X      -0.107667
     27 N02         70.1550    44.9190   -14.2200 n          1 Z5X      -0.231400
     28 N14         70.7850    41.1820   -14.0360 n          1 Z5X      -0.254400
     29 N17         72.7330    40.9350   -15.0410 n          1 Z5X      -0.407800
     30 O11         69.0900    43.1890   -13.2900 os         1 Z5X      -0.361200
     31 O33         69.1070    43.3880   -15.5380 o          1 Z5X      -0.475000
     32 H1          71.4510    46.3070   -15.0620 h1         1 Z5X       0.051033
     33 H2          70.8200    45.1220   -16.2020 h1         1 Z5X       0.051033
     34 H3          69.7840    46.4460   -15.6360 h1         1 Z5X       0.051033
     35 H4          68.3520    46.0840   -12.6320 ha         1 Z5X       0.127000
     36 H5          68.7740    47.0170   -10.3770 ha         1 Z5X       0.137500
     37 H6          72.8880    45.8610   -10.6690 ha         1 Z5X       0.137500
     38 H7          72.4570    44.9080   -12.9160 ha         1 Z5X       0.127000
     39 H8          71.4990    42.3820   -12.4360 h1         1 Z5X       0.061200
     40 H9          73.9250    41.3950   -13.3670 h1         1 Z5X       0.051200
     41 H10         74.6280    40.5580   -15.7970 h1         1 Z5X       0.045700
     42 H11         73.2990    40.1970   -16.8980 h1         1 Z5X       0.045700
     43 H12         73.7750    41.8790   -16.6100 h1         1 Z5X       0.045700
     44 H13         69.6270    38.7860   -14.0610 ha         1 Z5X       0.152000
     45 H14         65.7470    40.1800   -12.8840 ha         1 Z5X       0.150000
     46 H15         71.9030    40.6610   -12.3260 h1         1 Z5X       0.061200
     47 H16         73.1380    42.7870   -14.1290 h1         1 Z5X       0.051200
     48 O20         70.8290    40.2500   -16.1500 o          1 Z5X      -0.542000
     49 C18         73.6530    40.8960   -16.1450 c3         1 Z5X       0.099300
@<TRIPOS>BOND
     1     1    27 1   
     2     1    32 1   
     3     1    33 1   
     4     1    34 1   
     5     2     3 ar  
     6     2     7 ar  
     7     2    27 1   
     8     3     4 ar  
     9     3    35 1   
    10     4     5 ar  
    11     4    36 1   
    12     5     6 ar  
    13     5    20 1   
    14     6     7 ar  
    15     6    37 1   
    16     7    38 1   
    17     8    27 1   
    18     8    30 1   
    19     8    31 2   
    20     9    10 ar  
    21     9    18 ar  
    22     9    30 1   
    23    10    14 ar  
    24    10    28 1   
    25    11    12 1   
    26    11    28 1   
    27    11    39 1   
    28    11    46 1   
    29    12    29 1   
    30    12    40 1   
    31    12    47 1   
    32    13    28 1   
    33    13    29 1   
    34    13    48 2   
    35    14    15 ar  
    36    14    44 1   
    37    15    16 1   
    38    15    17 ar  
    39    16    21 1   
    40    16    22 1   
    41    16    23 1   
    42    17    18 ar  
    43    17    45 1   
    44    18    19 1   
    45    19    24 1   
    46    19    25 1   
    47    19    26 1   
    48    29    49 1   
    49    41    49 1   
    50    42    49 1   
    51    43    49 1   
@<TRIPOS>SUBSTRUCTURE
     1 Z5X         1 TEMP              0 ****  ****    0 ROOT
