@<TRIPOS>MOLECULE
Z5X
   49    51     1     0     0
SMALL
No Charge or Current Charge


@<TRIPOS>ATOM
      1 C01         70.5640    45.7500   -15.4350 c3         1 Z5X       0.104300
      2 C03         70.3970    45.5800   -12.9450 ca         1 Z5X      -0.061000
      3 C04         69.4910    45.5900   -11.8620 ca         1 Z5X      -0.080000
      4 C05         69.9240    45.9180   -10.5650 ca         1 Z5X      -0.145000
      5 C06         71.2790    46.1880   -10.3290 ca         1 Z5X       0.177000
      6 C08         72.2040    46.1130   -11.3790 ca         1 Z5X      -0.145000
      7 C09         71.7690    45.7880   -12.6760 ca         1 Z5X      -0.080000
      8 C10         69.2700    43.8830   -14.4660 c          1 Z5X       0.654100
      9 C12         68.4860    41.9300   -13.3220 ca         1 Z5X       0.197100
     10 C13         69.3860    40.8590   -13.5470 ca         1 Z5X      -0.045000
     11 C15         71.6710    41.9000   -12.9570 c5         1 Z5X       0.089000
     12 C16         73.0400    41.9230   -13.7290 c5         1 Z5X       0.080000
     13 C19         71.4480    40.6630   -14.9780 c          1 Z5X       0.603000
     14 C21         68.8500    39.5760   -13.7730 ca         1 Z5X      -0.022000
     15 C22         67.4730    39.3210   -13.6140 ca         1 Z5X      -0.201300
     16 C23         66.9160    37.9050   -13.7960 c3         1 Z5X       0.363300
     17 C27         66.6130    40.3800   -13.2620 ca         1 Z5X      -0.007000
     18 C28         67.1060    41.6970   -13.1300 ca         1 Z5X      -0.205300
     19 C29         66.1590    42.8600   -12.8040 c3         1 Z5X       0.370300
     20 F07         71.6970    46.4950    -9.0820 f          1 Z5X      -0.173000
     21 F24         65.6650    37.9080   -14.3090 f          1 Z5X      -0.108667
     22 F25         67.6710    37.1530   -14.6300 f          1 Z5X      -0.108667
     23 F26         66.8580    37.2470   -12.6170 f          1 Z5X      -0.108667
     24 F30         66.5250    43.4970   -11.6690 f          1 Z5X      -0.107667
     25 F31         64.8780    42.4650   -12.6220 f          1 Z5X      -0.107667
     26 F32         66.1360    43.7840   -13.7910 f          1 Z5X      -0.107667
     27 N02         70.0060    45.0760   -14.2420 n          1 Z5X      -0.231400
     28 N14         70.7810    41.1010   -13.8390 n          1 Z5X      -0.254400
     29 N17         72.7520    41.1190   -14.9310 n          1 Z5X      -0.407800
     30 O11         68.9580    43.2180   -13.3120 os         1 Z5X      -0.361200
     31 O33         68.9740    43.4720   -15.5810 o          1 Z5X      -0.475000
     32 H1          70.9660    46.7340   -15.1630 h1         1 Z5X       0.051033
     33 H2          71.3680    45.1380   -15.8620 h1         1 Z5X       0.051033
     34 H3          69.7780    45.8930   -16.1880 h1         1 Z5X       0.051033
     35 H4          68.4390    45.3740   -12.0280 ha         1 Z5X       0.127000
     36 H5          69.2140    45.9530    -9.7430 ha         1 Z5X       0.137500
     37 H6          73.2590    46.2930   -11.1840 ha         1 Z5X       0.137500
     38 H7          72.5060    45.6950   -13.4710 ha         1 Z5X       0.127000
     39 H8          71.3040    42.9170   -12.7890 h1         1 Z5X       0.061200
     40 H9          73.8470    41.4750   -13.1340 h1         1 Z5X       0.051200
     41 H10         74.6860    41.2750   -15.7730 h1         1 Z5X       0.045700
     42 H11         73.8310    39.7440   -16.1190 h1         1 Z5X       0.045700
     43 H12         73.3460    41.2500   -16.9550 h1         1 Z5X       0.045700
     44 H13         69.5230    38.7610   -14.0320 ha         1 Z5X       0.152000
     45 H14         65.5540    40.1750   -13.1180 ha         1 Z5X       0.150000
     46 H15         71.7790    41.4160   -11.9770 h1         1 Z5X       0.061200
     47 H16         73.3310    42.9460   -13.9980 h1         1 Z5X       0.051200
     48 O20         70.9690    39.9990   -15.8870 o          1 Z5X      -0.542000
     49 C18         73.7120    40.8290   -16.0100 c3         1 Z5X       0.099300
@<TRIPOS>BOND
     1     1    27 1   
     2     1    32 1   
     3     1    33 1   
     4     1    34 1   
     5     2     3 ar  
     6     2     7 ar  
     7     2    27 1   
     8     3     4 ar  
     9     3    35 1   
    10     4     5 ar  
    11     4    36 1   
    12     5     6 ar  
    13     5    20 1   
    14     6     7 ar  
    15     6    37 1   
    16     7    38 1   
    17     8    27 1   
    18     8    30 1   
    19     8    31 2   
    20     9    10 ar  
    21     9    18 ar  
    22     9    30 1   
    23    10    14 ar  
    24    10    28 1   
    25    11    12 1   
    26    11    28 1   
    27    11    39 1   
    28    11    46 1   
    29    12    29 1   
    30    12    40 1   
    31    12    47 1   
    32    13    28 1   
    33    13    29 1   
    34    13    48 2   
    35    14    15 ar  
    36    14    44 1   
    37    15    16 1   
    38    15    17 ar  
    39    16    21 1   
    40    16    22 1   
    41    16    23 1   
    42    17    18 ar  
    43    17    45 1   
    44    18    19 1   
    45    19    24 1   
    46    19    25 1   
    47    19    26 1   
    48    29    49 1   
    49    41    49 1   
    50    42    49 1   
    51    43    49 1   
@<TRIPOS>SUBSTRUCTURE
     1 Z5X         1 TEMP              0 ****  ****    0 ROOT
