@<TRIPOS>MOLECULE
Z5Z
   29    30     1     0     0
SMALL
No Charge or Current Charge


@<TRIPOS>ATOM
      1 N1          27.3510   -39.1900     9.9870 nc         1 Z5Z      -0.780000
      2 C4          27.6620   -38.8290     5.7000 c6         1 Z5Z       0.160300
      3 C5          26.6640   -38.0250     4.8330 c3         1 Z5Z      -0.089100
      4 C6          27.9400   -40.1250     9.2890 cd         1 Z5Z       0.713300
      5 C7          27.5130   -39.5460    11.3010 cc         1 Z5Z       0.629300
      6 C8          26.9250   -38.6340    12.3350 c3         1 Z5Z      -0.115400
      7 N2          28.1630   -40.6500    11.6590 nd         1 Z5Z      -0.529100
      8 S           28.6690   -41.3980    10.2540 ss         1 Z5Z      -0.039300
      9 N           27.9750   -40.0830     7.8930 nh         1 Z5Z      -0.759300
     10 C2          28.4400   -41.2670     7.0990 c6         1 Z5Z       0.185300
     11 C3          27.1110   -39.1210     7.1300 c6         1 Z5Z       0.185300
     12 O           27.9400   -40.0600     4.9980 os         1 Z5Z      -0.452000
     13 C1          28.9270   -40.8720     5.6690 c6         1 Z5Z       0.160300
     14 C           29.1900   -42.1040     4.7710 c3         1 Z5Z      -0.089100
     15 H2          26.4350   -37.0580     5.2940 hc         1 Z5Z       0.048867
     16 H3          27.0790   -37.8280     3.8370 hc         1 Z5Z       0.048867
     17 H4          25.7200   -38.5690     4.7050 hc         1 Z5Z       0.048867
     18 H5          27.3610   -37.6320    12.2570 hc         1 Z5Z       0.059367
     19 H6          25.8410   -38.5480    12.2000 hc         1 Z5Z       0.059367
     20 H7          27.1110   -39.0070    13.3480 hc         1 Z5Z       0.059367
     21 H8          27.6200   -41.9950     7.0090 h1         1 Z5Z       0.065200
     22 H9          29.2700   -41.7800     7.6050 h1         1 Z5Z       0.065200
     23 H10         27.0270   -38.1610     7.6600 h1         1 Z5Z       0.065200
     24 H11         26.0930   -39.5280     7.0460 h1         1 Z5Z       0.065200
     25 H12         29.8600   -40.2950     5.7520 h1         1 Z5Z       0.044700
     26 H13         29.9600   -42.7510     5.2080 hc         1 Z5Z       0.048867
     27 H14         28.2810   -42.7050     4.6420 hc         1 Z5Z       0.048867
     28 H15         29.5370   -41.7990     3.7770 hc         1 Z5Z       0.048867
     29 H1          28.5950   -38.2520     5.7830 h1         1 Z5Z       0.044700
@<TRIPOS>BOND
     1     1     4 2   
     2     1     5 1   
     3     2     3 1   
     4     2    11 1   
     5     2    12 1   
     6     2    29 1   
     7     3    15 1   
     8     3    16 1   
     9     3    17 1   
    10     4     8 1   
    11     4     9 1   
    12     5     6 1   
    13     5     7 2   
    14     6    18 1   
    15     6    19 1   
    16     6    20 1   
    17     7     8 1   
    18     9    10 1   
    19     9    11 1   
    20    10    13 1   
    21    10    21 1   
    22    10    22 1   
    23    11    23 1   
    24    11    24 1   
    25    12    13 1   
    26    13    14 1   
    27    13    25 1   
    28    14    26 1   
    29    14    27 1   
    30    14    28 1   
@<TRIPOS>SUBSTRUCTURE
     1 Z5Z         1 TEMP              0 ****  ****    0 ROOT
