@<TRIPOS>MOLECULE
Z5Z
   29    30     1     0     0
SMALL
abcg2


@<TRIPOS>ATOM
      1 N1          27.3140   -39.2320     9.9030 nc         1 Z5Z      -0.780000
      2 C4          27.6340   -38.8710     5.7690 c6         1 Z5Z       0.160300
      3 C5          26.7150   -38.0230     4.9180 c3         1 Z5Z      -0.089100
      4 C6          27.8400   -40.1650     9.1510 cd         1 Z5Z       0.713300
      5 C7          27.5570   -39.5100    11.2110 cc         1 Z5Z       0.629300
      6 C8          27.0640   -38.5710    12.2570 c3         1 Z5Z      -0.115400
      7 N2          28.2160   -40.5860    11.5330 nd         1 Z5Z      -0.529100
      8 S           28.6070   -41.3940    10.1230 ss         1 Z5Z      -0.039300
      9 N           27.8130   -40.1830     7.8170 nh         1 Z5Z      -0.759300
     10 C2          28.2990   -41.3190     7.0560 c6         1 Z5Z       0.185300
     11 C3          26.9720   -39.2490     7.0850 c6         1 Z5Z       0.185300
     12 O           27.9780   -40.0330     5.0410 os         1 Z5Z      -0.452000
     13 C1          28.8980   -40.8470     5.7360 c6         1 Z5Z       0.160300
     14 C           29.2710   -42.0160     4.8510 c3         1 Z5Z      -0.089100
     15 H2          26.4530   -37.1060     5.4440 hc         1 Z5Z       0.048867
     16 H3          27.1990   -37.7440     3.9820 hc         1 Z5Z       0.048867
     17 H4          25.7910   -38.5540     4.6830 hc         1 Z5Z       0.048867
     18 H5          27.4860   -37.5770    12.1050 hc         1 Z5Z       0.059367
     19 H6          25.9790   -38.4740    12.1990 hc         1 Z5Z       0.059367
     20 H7          27.3320   -38.9170    13.2510 hc         1 Z5Z       0.059367
     21 H8          27.4860   -42.0330     6.8730 h1         1 Z5Z       0.065200
     22 H9          29.0800   -41.8380     7.6150 h1         1 Z5Z       0.065200
     23 H10         26.8200   -38.3580     7.6900 h1         1 Z5Z       0.065200
     24 H11         25.9910   -39.7020     6.8970 h1         1 Z5Z       0.065200
     25 H12         29.8000   -40.2620     5.9690 h1         1 Z5Z       0.044700
     26 H13         30.0050   -42.6480     5.3510 hc         1 Z5Z       0.048867
     27 H14         28.4010   -42.6290     4.6130 hc         1 Z5Z       0.048867
     28 H15         29.7140   -41.6680     3.9180 hc         1 Z5Z       0.048867
     29 H1          28.5480   -38.3030     6.0010 h1         1 Z5Z       0.044700
@<TRIPOS>BOND
     1     1     4 2   
     2     1     5 1   
     3     2     3 1   
     4     2    11 1   
     5     2    12 1   
     6     2    29 1   
     7     3    15 1   
     8     3    16 1   
     9     3    17 1   
    10     4     8 1   
    11     4     9 1   
    12     5     6 1   
    13     5     7 2   
    14     6    18 1   
    15     6    19 1   
    16     6    20 1   
    17     7     8 1   
    18     9    10 1   
    19     9    11 1   
    20    10    13 1   
    21    10    21 1   
    22    10    22 1   
    23    11    23 1   
    24    11    24 1   
    25    12    13 1   
    26    13    14 1   
    27    13    25 1   
    28    14    26 1   
    29    14    27 1   
    30    14    28 1   
@<TRIPOS>SUBSTRUCTURE
     1 Z5Z         1 TEMP              0 ****  ****    0 ROOT
