@<TRIPOS>MOLECULE
Z60
   28    29     1     0     0
SMALL
abcg2


@<TRIPOS>ATOM
      1 CL          -4.7850     2.1910     0.4190 cl         1 Z60      -0.143000
      2 N1           2.8380    -1.0300     0.1230 nc         1 Z60      -0.824000
      3 C2           1.7250    -1.7110    -0.2330 cc         1 Z60       0.704900
      4 N3           1.8600    -2.9270    -0.7490 nv         1 Z60      -1.047900
      5 C4           0.4940    -1.0510    -0.0280 cd         1 Z60      -0.472600
      6 C6          -2.0300    -0.8380    -0.1520 cc         1 Z60      -0.277600
      7 O7          -0.8860    -2.7530    -0.7910 o          1 Z60      -0.613100
      8 S8           0.8390     0.5190     0.6970 ss         1 Z60      -0.118400
      9 C9           2.5380     0.1410     0.6200 cd         1 Z60       0.790300
     10 N10          3.4410     1.0030     1.0690 nu         1 Z60      -0.909100
     11 C11          4.8710     0.7580     0.9910 c3         1 Z60       0.258000
     12 C12          5.4380     1.1090    -0.3520 c2         1 Z60      -0.248200
     13 C13          6.3870     2.0170    -0.5360 c2         1 Z60      -0.301000
     14 S14         -2.1520     0.8700     0.1010 ss         1 Z60       0.259000
     15 C15         -3.8620     0.7780     0.1730 cc         1 Z60      -0.025000
     16 C16         -4.3300    -0.4890     0.0100 cd         1 Z60      -0.134000
     17 C17         -3.2740    -1.4080    -0.1800 cd         1 Z60      -0.072000
     18 H1N3         2.7750    -3.3250    -0.8650 hn         1 Z60       0.519500
     19 H2N3         1.0390    -3.4560    -0.9930 hn         1 Z60       0.519500
     20 HN10         3.1420     1.9220     1.3550 hn         1 Z60       0.507000
     21 H111         5.3440     1.3510     1.7740 h1         1 Z60       0.066700
     22 H211         5.0520    -0.2920     1.2210 h1         1 Z60       0.066700
     23 H112         5.0330     0.5640    -1.1990 ha         1 Z60       0.189000
     24 H113         6.7830     2.2320    -1.5200 ha         1 Z60       0.164000
     25 H213         6.8090     2.5750     0.2910 ha         1 Z60       0.164000
     26 H16         -5.3770    -0.7520     0.0240 ha         1 Z60       0.147000
     27 H17         -3.4270    -2.4670    -0.3300 ha         1 Z60       0.154000
     28 C5          -0.7730    -1.6000    -0.3460 c          1 Z60       0.676300
@<TRIPOS>BOND
     1     1    15 1   
     2     2     3 1   
     3     2     9 2   
     4     3     4 1   
     5     3     5 2   
     6     4    18 1   
     7     4    19 1   
     8     5     8 1   
     9     5    28 1   
    10     6    14 1   
    11     6    17 2   
    12     6    28 1   
    13     7    28 2   
    14     8     9 1   
    15     9    10 1   
    16    10    11 1   
    17    10    20 1   
    18    11    12 1   
    19    11    21 1   
    20    11    22 1   
    21    12    13 2   
    22    12    23 1   
    23    13    24 1   
    24    13    25 1   
    25    14    15 1   
    26    15    16 2   
    27    16    17 1   
    28    16    26 1   
    29    17    27 1   
@<TRIPOS>SUBSTRUCTURE
     1 Z60         1 TEMP              0 ****  ****    0 ROOT
