@<TRIPOS>MOLECULE
Z60
   28    29     1     0     0
SMALL
No Charge or Current Charge


@<TRIPOS>ATOM
      1 Cl          -4.8630     2.3330    -0.5490 cl         1 Z60      -0.143000
      2 N1           2.8050    -1.3510    -0.1050 nc         1 Z60      -0.824000
      3 C2           1.5940    -1.9130    -0.0410 cc         1 Z60       0.704900
      4 N3           1.7080    -3.2130     0.0910 nv         1 Z60      -1.047900
      5 C4           0.4730    -1.1390    -0.0830 cd         1 Z60      -0.472600
      6 C6          -2.1110    -0.8260     0.0010 cc         1 Z60      -0.277600
      7 O7          -1.0430    -2.8780     0.3480 o          1 Z60      -0.613100
      8 S8           0.9860     0.5380    -0.2870 ss         1 Z60      -0.118400
      9 C9           2.6390    -0.0590    -0.2270 cd         1 Z60       0.790300
     10 N10          3.7280     0.7380    -0.3170 nu         1 Z60      -0.909100
     11 C11          5.1240     0.3370    -0.1770 c3         1 Z60       0.258000
     12 C12          5.9670     1.5860    -0.2670 c2         1 Z60      -0.248200
     13 C13          6.0170     2.5680     0.6510 c2         1 Z60      -0.301000
     14 S14         -2.1620     0.8930    -0.4000 ss         1 Z60       0.259000
     15 C15         -3.9160     0.9020    -0.2800 cc         1 Z60      -0.025000
     16 C16         -4.4070    -0.3340     0.0400 cd         1 Z60      -0.134000
     17 C17         -3.3880    -1.3130     0.1970 cd         1 Z60      -0.072000
     18 H1N3         2.5920    -3.5050     0.4830 hn         1 Z60       0.519500
     19 H2N3         0.8710    -3.6720     0.4390 hn         1 Z60       0.519500
     20 HN10         3.5200     1.7300    -0.3550 hn         1 Z60       0.507000
     21 H111         5.2900    -0.1600     0.7900 h1         1 Z60       0.066700
     22 H211         5.4050    -0.3680    -0.9740 h1         1 Z60       0.066700
     23 H112         6.5710     1.6430    -1.1760 ha         1 Z60       0.189000
     24 H113         6.6540     3.4440     0.5170 ha         1 Z60       0.164000
     25 H213         5.4250     2.5280     1.5670 ha         1 Z60       0.164000
     26 H16         -5.4660    -0.5430     0.1600 ha         1 Z60       0.147000
     27 H17         -3.6040    -2.3480     0.4490 ha         1 Z60       0.154000
     28 C5          -0.8990    -1.6870     0.1000 c          1 Z60       0.676300
@<TRIPOS>BOND
     1     1    15 1   
     2     2     3 1   
     3     2     9 2   
     4     3     4 1   
     5     3     5 2   
     6     4    18 1   
     7     4    19 1   
     8     5     8 1   
     9     5    28 1   
    10     6    14 1   
    11     6    17 2   
    12     6    28 1   
    13     7    28 2   
    14     8     9 1   
    15     9    10 1   
    16    10    11 1   
    17    10    20 1   
    18    11    12 1   
    19    11    21 1   
    20    11    22 1   
    21    12    13 2   
    22    12    23 1   
    23    13    24 1   
    24    13    25 1   
    25    14    15 1   
    26    15    16 2   
    27    16    17 1   
    28    16    26 1   
    29    17    27 1   
@<TRIPOS>SUBSTRUCTURE
     1 Z60         1 TEMP              0 ****  ****    0 ROOT
