@<TRIPOS>MOLECULE
Z61
   23    23     1     0     0
SMALL
No Charge or Current Charge


@<TRIPOS>ATOM
      1 O4          -0.6920    31.7570    30.7540 oh         1 Z61      -0.723000
      2 C1          -3.5070    29.6260    33.1980 c6         1 Z61       0.385300
      3 C2          -3.3890    31.1550    33.3970 c6         1 Z61      -0.099400
      4 C3          -2.6860    31.8220    32.1920 c6         1 Z61       0.179300
      5 C4          -1.3160    31.1390    31.9040 c6         1 Z61       0.099300
      6 C5          -1.5550    29.6080    31.7050 c6         1 Z61       0.146300
      7 C6          -0.2260    28.8090    31.4850 c3         1 Z61       0.168600
      8 O3          -2.4880    33.2200    32.4390 oh         1 Z61      -0.660000
      9 O5          -2.2230    29.0600    32.8800 os         1 Z61      -0.472000
     10 O6          -0.4290    27.3870    31.3590 oh         1 Z61      -0.705000
     11 H1          -3.8790    29.1720    34.1310 h2         1 Z61       0.065700
     12 H21         -4.3870    31.5890    33.5400 hc         1 Z61       0.071200
     13 H22         -2.8250    31.3530    34.3180 hc         1 Z61       0.071200
     14 H3          -3.3250    31.6910    31.3050 h1         1 Z61       0.060700
     15 H4          -0.6760    31.2700    32.7900 h1         1 Z61       0.049700
     16 H5          -2.1880    29.4520    30.8190 h1         1 Z61       0.072700
     17 H61          0.2630    29.1920    30.5790 h1         1 Z61       0.022700
     18 H62          0.4430    29.0170    32.3310 h1         1 Z61       0.022700
     19 HO3         -1.8150    33.4920    31.7730 ho         1 Z61       0.457000
     20 HO6          0.4650    26.9740    31.3060 ho         1 Z61       0.502000
     21 HO4          0.2800    31.5970    30.8190 ho         1 Z61       0.507000
     22 O1          -4.3910    29.3060    32.1330 oh         1 Z61      -0.678000
     23 HO1         -4.2910    28.3390    32.0110 ho         1 Z61       0.458000
@<TRIPOS>BOND
     1     1     5 1   
     2     1    21 1   
     3     2     3 1   
     4     2     9 1   
     5     2    11 1   
     6     2    22 1   
     7     3     4 1   
     8     3    12 1   
     9     3    13 1   
    10     4     5 1   
    11     4     8 1   
    12     4    14 1   
    13     5     6 1   
    14     5    15 1   
    15     6     7 1   
    16     6     9 1   
    17     6    16 1   
    18     7    10 1   
    19     7    17 1   
    20     7    18 1   
    21     8    19 1   
    22    10    20 1   
    23    22    23 1   
@<TRIPOS>SUBSTRUCTURE
     1 Z61         1 TEMP              0 ****  ****    0 ROOT
