@<TRIPOS>MOLECULE
Z61
   23    23     1     0     0
SMALL
abcg2


@<TRIPOS>ATOM
      1 O4          -0.7360    31.6690    30.7490 oh         1 Z61      -0.723000
      2 C1          -3.4430    29.6190    33.1460 c6         1 Z61       0.385300
      3 C2          -3.3270    31.1210    33.3430 c6         1 Z61      -0.099400
      4 C3          -2.6350    31.7820    32.1640 c6         1 Z61       0.179300
      5 C4          -1.3020    31.0910    31.9070 c6         1 Z61       0.099300
      6 C5          -1.5220    29.5830    31.7300 c6         1 Z61       0.146300
      7 C6          -0.2140    28.8360    31.5890 c3         1 Z61       0.168600
      8 O3          -2.4650    33.1480    32.4610 oh         1 Z61      -0.660000
      9 O5          -2.1920    29.0480    32.8590 os         1 Z61      -0.472000
     10 O6          -0.4830    27.4810    31.3200 oh         1 Z61      -0.705000
     11 H1          -3.7500    29.1430    34.0840 h2         1 Z61       0.065700
     12 H21         -4.3180    31.5500    33.5050 hc         1 Z61       0.071200
     13 H22         -2.7460    31.3030    34.2520 hc         1 Z61       0.071200
     14 H3          -3.2570    31.6610    31.2640 h1         1 Z61       0.060700
     15 H4          -0.6570    31.2540    32.7830 h1         1 Z61       0.049700
     16 H5          -2.1150    29.4260    30.8170 h1         1 Z61       0.072700
     17 H61          0.3620    29.2960    30.7770 h1         1 Z61       0.022700
     18 H62          0.3740    28.9610    32.5100 h1         1 Z61       0.022700
     19 HO3         -2.0410    33.5630    31.7020 ho         1 Z61       0.457000
     20 HO6          0.3530    27.0420    31.1420 ho         1 Z61       0.502000
     21 HO4          0.2220    31.6400    30.8170 ho         1 Z61       0.507000
     22 O1          -4.3770    29.3770    32.1380 oh         1 Z61      -0.678000
     23 HO1         -4.5660    28.4330    32.1080 ho         1 Z61       0.458000
@<TRIPOS>BOND
     1     1     5 1   
     2     1    21 1   
     3     2     3 1   
     4     2     9 1   
     5     2    11 1   
     6     2    22 1   
     7     3     4 1   
     8     3    12 1   
     9     3    13 1   
    10     4     5 1   
    11     4     8 1   
    12     4    14 1   
    13     5     6 1   
    14     5    15 1   
    15     6     7 1   
    16     6     9 1   
    17     6    16 1   
    18     7    10 1   
    19     7    17 1   
    20     7    18 1   
    21     8    19 1   
    22    10    20 1   
    23    22    23 1   
@<TRIPOS>SUBSTRUCTURE
     1 Z61         1 TEMP              0 ****  ****    0 ROOT
