@<TRIPOS>MOLECULE
Z62
   33    34     1     0     0
SMALL
No Charge or Current Charge


@<TRIPOS>ATOM
      1 N1           2.9660    -1.4460     0.2630 nc         1 Z62      -0.822000
      2 C2           1.7150    -1.8070     0.5660 cc         1 Z62       0.705900
      3 N3           1.6620    -3.0730     0.9060 nv         1 Z62      -1.042900
      4 C4           0.7080    -0.9030     0.4630 cd         1 Z62      -0.478600
      5 C5          -0.7220    -1.2270     0.6390 c          1 Z62       0.647300
      6 C6          -1.7260    -0.1100     0.5430 ca         1 Z62      -0.154600
      7 C7          -2.8900    -0.2890    -0.2320 ca         1 Z62      -0.007000
      8 C8          -3.8600     0.7380    -0.3270 ca         1 Z62      -0.186200
      9 C9          -3.6530     1.9470     0.3770 ca         1 Z62      -0.037000
     10 C10         -2.5030     2.1170     1.1650 ca         1 Z62      -0.130000
     11 C11         -1.5460     1.0940     1.2540 ca         1 Z62      -0.044000
     12 O12         -1.1000    -2.3740     0.8450 o          1 Z62      -0.594100
     13 S13          1.3850     0.6390    -0.0550 ss         1 Z62      -0.111400
     14 C14          2.9430    -0.1820    -0.0870 cd         1 Z62       0.786300
     15 N15          4.1000     0.4190    -0.4470 nu         1 Z62      -0.906100
     16 C16          5.4420    -0.1510    -0.3870 c3         1 Z62       0.258000
     17 C17          6.4120     0.9300    -0.7970 c2         1 Z62      -0.251200
     18 C18          6.7070     2.0330    -0.0840 c2         1 Z62      -0.299000
     19 N19         -5.0890     0.5440    -1.1610 no         1 Z62       0.695200
     20 O20         -5.2250    -0.5290    -1.7630 o          1 Z62      -0.398500
     21 O21         -5.9130     1.4670    -1.2120 o          1 Z62      -0.398500
     22 HN3          2.4410    -3.6180     0.5630 hn         1 Z62       0.517000
     23 HN3A         0.7410    -3.4930     0.8400 hn         1 Z62       0.517000
     24 H7          -3.0300    -1.2310    -0.7630 ha         1 Z62       0.164000
     25 H9          -4.3810     2.7560     0.3260 ha         1 Z62       0.150000
     26 H10         -2.3550     3.0450     1.7130 ha         1 Z62       0.128000
     27 H11         -0.6700     1.2360     1.8850 ha         1 Z62       0.133000
     28 HN15         4.0140     1.4110    -0.6420 hn         1 Z62       0.507000
     29 H16          5.6710    -0.4970     0.6310 h1         1 Z62       0.067700
     30 H16A         5.5260    -1.0130    -1.0650 h1         1 Z62       0.067700
     31 H17          6.8900     0.7490    -1.7620 ha         1 Z62       0.188000
     32 H18          6.2440     2.2320     0.8850 ha         1 Z62       0.165000
     33 H18A         7.4230     2.7730    -0.4450 ha         1 Z62       0.165000
@<TRIPOS>BOND
     1     1     2 1   
     2     1    14 2   
     3     2     3 1   
     4     2     4 2   
     5     3    22 1   
     6     3    23 1   
     7     4     5 1   
     8     4    13 1   
     9     5     6 1   
    10     5    12 2   
    11     6     7 ar  
    12     6    11 ar  
    13     7     8 ar  
    14     7    24 1   
    15     8     9 ar  
    16     8    19 1   
    17     9    10 ar  
    18     9    25 1   
    19    10    11 ar  
    20    10    26 1   
    21    11    27 1   
    22    13    14 1   
    23    14    15 1   
    24    15    16 1   
    25    15    28 1   
    26    16    17 1   
    27    16    29 1   
    28    16    30 1   
    29    17    18 2   
    30    17    31 1   
    31    18    32 1   
    32    18    33 1   
    33    19    20 1   
    34    19    21 1   
@<TRIPOS>SUBSTRUCTURE
     1 Z62         1 TEMP              0 ****  ****    0 ROOT
