@<TRIPOS>MOLECULE
Z62
   33    34     1     0     0
SMALL
abcg2


@<TRIPOS>ATOM
      1 N1           3.0600    -1.1020     0.3760 nc         1 Z62      -0.822000
      2 C2           1.8460    -1.6870     0.2850 cc         1 Z62       0.705900
      3 N3           1.7770    -2.9990     0.0790 nv         1 Z62      -1.042900
      4 C4           0.7330    -0.8360     0.4210 cd         1 Z62      -0.478600
      5 C5          -0.6190    -1.2170     0.2710 c          1 Z62       0.647300
      6 C6          -1.6840    -0.1740     0.4290 ca         1 Z62      -0.154600
      7 C7          -2.6940    -0.1220    -0.5240 ca         1 Z62      -0.007000
      8 C8          -3.7010     0.8180    -0.3860 ca         1 Z62      -0.186200
      9 C9          -3.7520     1.6900     0.6930 ca         1 Z62      -0.037000
     10 C10         -2.7590     1.6090     1.6520 ca         1 Z62      -0.130000
     11 C11         -1.7280     0.6880     1.5210 ca         1 Z62      -0.044000
     12 O12         -0.9670    -2.3690    -0.0150 o          1 Z62      -0.594100
     13 S13          1.3250     0.8070     0.6600 ss         1 Z62      -0.111400
     14 C14          2.9500     0.1880     0.5720 cd         1 Z62       0.786300
     15 N15          3.9940     0.9950     0.7170 nu         1 Z62      -0.906100
     16 C16          5.3670     0.5350     0.5890 c3         1 Z62       0.258000
     17 C17          5.8120     0.4650    -0.8410 c2         1 Z62      -0.251200
     18 C18          6.8320     1.1590    -1.3300 c2         1 Z62      -0.299000
     19 N19         -4.7440     0.8840    -1.4020 no         1 Z62       0.695200
     20 O20         -4.6990     0.0940    -2.3140 o          1 Z62      -0.398500
     21 O21         -5.6030     1.7250    -1.2790 o          1 Z62      -0.398500
     22 HN3          2.6180    -3.5190    -0.1000 hn         1 Z62       0.517000
     23 HN3A         0.8830    -3.4290    -0.0910 hn         1 Z62       0.517000
     24 H7          -2.6800    -0.8010    -1.3650 ha         1 Z62       0.164000
     25 H9          -4.5460     2.4150     0.7950 ha         1 Z62       0.150000
     26 H10         -2.7900     2.2640     2.5110 ha         1 Z62       0.128000
     27 H11         -0.9730     0.6280     2.2950 ha         1 Z62       0.133000
     28 HN15         3.8410     1.9900     0.7630 hn         1 Z62       0.507000
     29 H16          5.9940     1.2250     1.1530 h1         1 Z62       0.067700
     30 H16A         5.4450    -0.4430     1.0630 h1         1 Z62       0.067700
     31 H17          5.2490    -0.2030    -1.4860 ha         1 Z62       0.188000
     32 H18          7.4100     1.8330    -0.7090 ha         1 Z62       0.165000
     33 H18A         7.1290     1.0750    -2.3670 ha         1 Z62       0.165000
@<TRIPOS>BOND
     1     1     2 1   
     2     1    14 2   
     3     2     3 1   
     4     2     4 2   
     5     3    22 1   
     6     3    23 1   
     7     4     5 1   
     8     4    13 1   
     9     5     6 1   
    10     5    12 2   
    11     6     7 ar  
    12     6    11 ar  
    13     7     8 ar  
    14     7    24 1   
    15     8     9 ar  
    16     8    19 1   
    17     9    10 ar  
    18     9    25 1   
    19    10    11 ar  
    20    10    26 1   
    21    11    27 1   
    22    13    14 1   
    23    14    15 1   
    24    15    16 1   
    25    15    28 1   
    26    16    17 1   
    27    16    29 1   
    28    16    30 1   
    29    17    18 2   
    30    17    31 1   
    31    18    32 1   
    32    18    33 1   
    33    19    20 1   
    34    19    21 1   
@<TRIPOS>SUBSTRUCTURE
     1 Z62         1 TEMP              0 ****  ****    0 ROOT
