@<TRIPOS>MOLECULE
Z63
   30    31     1     0     0
SMALL
No Charge or Current Charge


@<TRIPOS>ATOM
      1 N1           1.9660    -1.4850     0.2720 nc         1 Z63      -0.824000
      2 C2           0.6780    -1.7950     0.4550 cc         1 Z63       0.702900
      3 N3           0.5450    -3.0530     0.8010 nv         1 Z63      -1.046900
      4 C4          -0.2780    -0.8550     0.2440 cd         1 Z63      -0.476600
      5 C5          -1.7300    -1.1230     0.2810 c          1 Z63       0.644300
      6 C6          -2.6810     0.0320     0.0770 ca         1 Z63      -0.106600
      7 C7          -3.8000    -0.1000    -0.7710 ca         1 Z63      -0.132500
      8 C8          -4.6830     0.9820    -0.9300 ca         1 Z63       0.326900
      9 N9          -4.5220     2.1660    -0.2930 nb         1 Z63      -0.660000
     10 C10         -3.4590     2.2930     0.5360 ca         1 Z63       0.326900
     11 C11         -2.5280     1.2620     0.7530 ca         1 Z63      -0.132500
     12 O12         -2.1690    -2.2540     0.4600 o          1 Z63      -0.598100
     13 S13          0.5050     0.6530    -0.2210 ss         1 Z63      -0.098400
     14 C14          2.0260    -0.2270    -0.0930 cd         1 Z63       0.779300
     15 N15          3.2360     0.3250    -0.3450 nu         1 Z63      -0.907100
     16 C16          4.5420    -0.2960    -0.1500 c3         1 Z63       0.258000
     17 C17          5.5900     0.7400    -0.4780 c2         1 Z63      -0.249200
     18 C18          5.8590     1.8420     0.2450 c2         1 Z63      -0.301000
     19 HN3          1.3310    -3.6310     0.5400 hn         1 Z63       0.516500
     20 HN3A        -0.3810    -3.4390     0.6500 hn         1 Z63       0.516500
     21 H7          -3.9860    -1.0270    -1.3070 ha         1 Z63       0.132500
     22 H8          -5.5480     0.8990    -1.5860 h4         1 Z63       0.018600
     23 H10         -3.3550     3.2490     1.0470 h4         1 Z63       0.018600
     24 H11         -1.7090     1.4220     1.4490 ha         1 Z63       0.132500
     25 HN15         3.2090     1.3160    -0.5590 hn         1 Z63       0.506000
     26 H16          4.6600    -0.6340     0.8900 h1         1 Z63       0.066700
     27 H16A         4.6560    -1.1710    -0.8060 h1         1 Z63       0.066700
     28 H17          6.1510     0.5230    -1.3900 ha         1 Z63       0.189000
     29 H18          6.6360     2.5480    -0.0550 ha         1 Z63       0.164500
     30 H18A         5.3140     2.0760     1.1620 ha         1 Z63       0.164500
@<TRIPOS>BOND
     1     1     2 1   
     2     1    14 2   
     3     2     3 1   
     4     2     4 2   
     5     3    19 1   
     6     3    20 1   
     7     4     5 1   
     8     4    13 1   
     9     5     6 1   
    10     5    12 2   
    11     6     7 ar  
    12     6    11 ar  
    13     7     8 ar  
    14     7    21 1   
    15     8     9 ar  
    16     8    22 1   
    17     9    10 ar  
    18    10    11 ar  
    19    10    23 1   
    20    11    24 1   
    21    13    14 1   
    22    14    15 1   
    23    15    16 1   
    24    15    25 1   
    25    16    17 1   
    26    16    26 1   
    27    16    27 1   
    28    17    18 2   
    29    17    28 1   
    30    18    29 1   
    31    18    30 1   
@<TRIPOS>SUBSTRUCTURE
     1 Z63         1 TEMP              0 ****  ****    0 ROOT
