@<TRIPOS>MOLECULE
Z63
   30    31     1     0     0
SMALL
bcc


@<TRIPOS>ATOM
      1 N1           2.0770    -1.1440     0.3580 nc         1 Z63      -0.824000
      2 C2           0.8570    -1.6770     0.1310 cc         1 Z63       0.768200
      3 N3           0.7580    -2.9800    -0.1120 nv         1 Z63      -0.936500
      4 C4          -0.2310    -0.7840     0.1690 cd         1 Z63      -0.397000
      5 C5          -1.5740    -1.1030    -0.1250 c          1 Z63       0.644300
      6 C6          -2.5980    -0.0110    -0.0680 ca         1 Z63      -0.106600
      7 C7          -3.4790     0.1600    -1.1290 ca         1 Z63      -0.215800
      8 C8          -4.4350     1.1590    -1.0470 ca         1 Z63       0.392200
      9 N9          -4.5770     1.9550     0.0080 nb         1 Z63      -0.660000
     10 C10         -3.7500     1.7730     1.0290 ca         1 Z63       0.392200
     11 C11         -2.7450     0.8160     1.0400 ca         1 Z63      -0.215800
     12 O12         -1.9460    -2.2360    -0.4550 o          1 Z63      -0.598100
     13 S13          0.3950     0.8280     0.5120 ss         1 Z63      -0.243300
     14 C14          1.9950     0.1460     0.5730 cd         1 Z63       0.779300
     15 N15          3.0480     0.9070     0.8440 nu         1 Z63      -0.851900
     16 C16          4.4090     0.3950     0.8530 c3         1 Z63       0.258000
     17 C17          4.9980     0.3260    -0.5240 c2         1 Z63      -0.199200
     18 C18          6.0740     1.0050    -0.8990 c2         1 Z63      -0.201000
     19 HN3          1.5900    -3.5380    -0.1980 hn         1 Z63       0.461300
     20 HN3A        -0.1350    -3.3780    -0.3510 hn         1 Z63       0.461300
     21 H7          -3.4210    -0.4620    -2.0130 ha         1 Z63       0.150500
     22 H8          -5.1180     1.3230    -1.8730 h4         1 Z63       0.018600
     23 H10         -3.8900     2.4170     1.8890 h4         1 Z63       0.018600
     24 H11         -2.1160     0.7120     1.9150 ha         1 Z63       0.150500
     25 HN15         2.9290     1.9070     0.8950 hn         1 Z63       0.450800
     26 H16          4.9980     1.0520     1.4910 h1         1 Z63       0.066700
     27 H16A         4.3980    -0.5920     1.3160 h1         1 Z63       0.066700
     28 H17          4.4920    -0.3260    -1.2300 ha         1 Z63       0.139000
     29 H18          6.4730     0.9250    -1.9020 ha         1 Z63       0.114500
     30 H18A         6.5980     1.6650    -0.2170 ha         1 Z63       0.114500
@<TRIPOS>BOND
     1     1     2 1   
     2     1    14 2   
     3     2     3 1   
     4     2     4 2   
     5     3    19 1   
     6     3    20 1   
     7     4     5 1   
     8     4    13 1   
     9     5     6 1   
    10     5    12 2   
    11     6     7 ar  
    12     6    11 ar  
    13     7     8 ar  
    14     7    21 1   
    15     8     9 ar  
    16     8    22 1   
    17     9    10 ar  
    18    10    11 ar  
    19    10    23 1   
    20    11    24 1   
    21    13    14 1   
    22    14    15 1   
    23    15    16 1   
    24    15    25 1   
    25    16    17 1   
    26    16    26 1   
    27    16    27 1   
    28    17    18 2   
    29    17    28 1   
    30    18    29 1   
    31    18    30 1   
@<TRIPOS>SUBSTRUCTURE
     1 Z63         1 TEMP              0 ****  ****    0 ROOT
