@<TRIPOS>MOLECULE
Z64
   47    50     1     0     0
SMALL
bcc


@<TRIPOS>ATOM
      1 C1          -3.4860    -0.1850    -0.0440 ca         1 Z64       0.749200
      2 C3          -4.0610    -2.4170     0.1190 ca         1 Z64       0.676900
      3 C5          -5.5930    -1.1010    -0.7810 ca         1 Z64       0.579300
      4 C6          -4.7580     0.0090    -0.6260 ca         1 Z64      -0.385800
      5 N2          -3.1830    -1.4360     0.3120 nb         1 Z64      -0.807000
      6 C8          -6.6690     0.5570    -1.5300 cc         1 Z64       0.426700
      7 C11         -2.7850     2.1310    -0.3080 c3         1 Z64       0.210100
      8 C12         -1.2800     0.4560     0.7440 c3         1 Z64       0.235800
      9 C13         -0.2610     0.0340    -0.3070 c3         1 Z64      -0.101400
     10 C14          1.0980    -0.2650     0.3110 c3         1 Z64      -0.070400
     11 C15          2.1300    -0.7010    -0.7300 c3         1 Z64       0.007900
     12 N10         -2.5800     0.7850     0.1800 nh         1 Z64      -0.784300
     13 N4          -5.2610    -2.3450    -0.4120 nb         1 Z64      -0.680000
     14 N9          -6.7770    -0.7340    -1.3470 nd         1 Z64      -0.642700
     15 N7          -5.4910     1.0610    -1.1210 na         1 Z64      -0.243300
     16 C16          3.4480    -1.0600    -0.1270 cc         1 Z64      -0.224600
     17 C20          3.8400    -2.3450     0.3070 cc         1 Z64       0.320600
     18 C21          3.0400    -3.6000     0.2240 c3         1 Z64      -0.121400
     19 C17          4.5360    -0.2570     0.1730 cd         1 Z64      -0.132800
     20 N18          5.4610    -1.0690     0.7300 na         1 Z64       0.002400
     21 N19          5.0570    -2.3300     0.8200 nd         1 Z64      -0.507800
     22 C22          4.7910     1.1490    -0.0210 cd         1 Z64       0.311200
     23 O23          3.7390     1.9420    -0.3110 os         1 Z64      -0.311800
     24 C24          4.1990     3.2030    -0.4420 cd         1 Z64       0.234600
     25 C25          5.5360     3.2380    -0.2360 cc         1 Z64      -0.263300
     26 C26          5.9290     1.8950     0.0360 cc         1 Z64      -0.262300
     27 H3          -3.7310    -3.4000     0.4410 h5         1 Z64       0.047100
     28 H8          -7.4280     1.1920    -1.9620 h5         1 Z64       0.064800
     29 H11         -1.9000     2.7230    -0.0920 h1         1 Z64       0.039033
     30 H11A        -2.9330     2.1640    -1.3900 h1         1 Z64       0.039033
     31 H11B        -3.6230     2.6230     0.1910 h1         1 Z64       0.039033
     32 H12         -1.4050    -0.3340     1.4820 h1         1 Z64       0.061200
     33 H12A        -0.9260     1.3400     1.2780 h1         1 Z64       0.061200
     34 H13         -0.6330    -0.8520    -0.8280 hc         1 Z64       0.047700
     35 H13A        -0.1580     0.8230    -1.0600 hc         1 Z64       0.047700
     36 H14          1.4690     0.6200     0.8350 hc         1 Z64       0.044200
     37 H14A         0.9930    -1.0490     1.0670 hc         1 Z64       0.044200
     38 H15          1.7430    -1.5710    -1.2680 hc         1 Z64       0.048700
     39 H15A         2.2480     0.0860    -1.4780 hc         1 Z64       0.048700
     40 HN7         -5.2320     2.0310    -1.1820 hn         1 Z64       0.306700
     41 H21          2.8100    -3.8590    -0.8110 hc         1 Z64       0.049033
     42 H21A         3.5810    -4.4350     0.6650 hc         1 Z64       0.049033
     43 H21B         2.0880    -3.4990     0.7470 hc         1 Z64       0.049033
     44 HN18         6.3650    -0.8110     1.0910 hn         1 Z64       0.324700
     45 H24          3.4690     3.9590    -0.6810 h4         1 Z64       0.054100
     46 H25          6.1710     4.1080    -0.2760 ha         1 Z64       0.163000
     47 H26          6.9270     1.5390     0.2350 ha         1 Z64       0.158000
@<TRIPOS>BOND
     1     1     4 ar  
     2     1     5 ar  
     3     1    12 1   
     4     2     5 ar  
     5     2    13 ar  
     6     2    27 1   
     7     3     4 ar  
     8     3    13 ar  
     9     3    14 1   
    10     4    15 1   
    11     6    14 2   
    12     6    15 1   
    13     6    28 1   
    14     7    12 1   
    15     7    29 1   
    16     7    30 1   
    17     7    31 1   
    18     8     9 1   
    19     8    12 1   
    20     8    32 1   
    21     8    33 1   
    22     9    10 1   
    23     9    34 1   
    24     9    35 1   
    25    10    11 1   
    26    10    36 1   
    27    10    37 1   
    28    11    16 1   
    29    11    38 1   
    30    11    39 1   
    31    15    40 1   
    32    16    17 1   
    33    16    19 2   
    34    17    18 1   
    35    17    21 2   
    36    18    41 1   
    37    18    42 1   
    38    18    43 1   
    39    19    20 1   
    40    19    22 1   
    41    20    21 1   
    42    20    44 1   
    43    22    23 1   
    44    22    26 2   
    45    23    24 1   
    46    24    25 2   
    47    24    45 1   
    48    25    26 1   
    49    25    46 1   
    50    26    47 1   
@<TRIPOS>SUBSTRUCTURE
     1 Z64         1 TEMP              0 ****  ****    0 ROOT
