@<TRIPOS>MOLECULE
Z64
   47    50     1     0     0
SMALL
No Charge or Current Charge


@<TRIPOS>ATOM
      1 C1          -3.5670    -0.2780    -0.3450 ca         1 Z64       0.420900
      2 C3          -4.1460    -2.5130    -0.3670 ca         1 Z64       0.150900
      3 C5          -5.8590    -1.0120    -0.5470 ca         1 Z64       0.251000
      4 C6          -4.9430     0.0040    -0.4750 ca         1 Z64      -0.255200
      5 N2          -3.1770    -1.5710    -0.2820 nb         1 Z64      -0.281000
      6 C8          -6.9870     0.8500    -0.6430 cc         1 Z64       0.426700
      7 C11         -2.6950     2.0220    -0.9420 c3         1 Z64       0.210100
      8 C12         -1.2660     0.4500     0.4190 c3         1 Z64       0.235800
      9 C13         -0.1520    -0.0480    -0.5290 c3         1 Z64      -0.101400
     10 C14          1.1790    -0.3280     0.2010 c3         1 Z64      -0.070400
     11 C15          2.2950    -0.8240    -0.7420 c3         1 Z64       0.007900
     12 N10         -2.5570     0.7140    -0.2630 nh         1 Z64      -0.784300
     13 N4          -5.4760    -2.3000    -0.5000 nb         1 Z64      -0.154000
     14 N9          -7.1480    -0.4900    -0.6620 nd         1 Z64      -0.642700
     15 N7          -5.6440     1.1810    -0.5210 na         1 Z64      -0.293600
     16 C16          3.5970    -1.0780    -0.0140 cc         1 Z64      -0.159300
     17 C20          4.0150    -2.3350     0.4890 cc         1 Z64       0.255300
     18 C21          3.1950    -3.5910     0.3610 c3         1 Z64      -0.121400
     19 C17          4.6120    -0.2260     0.3220 cd         1 Z64      -0.183500
     20 N18          5.5780    -0.9870     0.9860 na         1 Z64       0.002800
     21 N19          5.1920    -2.3200     1.0900 nd         1 Z64      -0.507800
     22 C22          4.6850     1.1910     0.0630 cd         1 Z64       0.201500
     23 O23          3.7020     1.9060    -0.5780 os         1 Z64      -0.223000
     24 C24          4.1880     3.1950    -0.5920 cd         1 Z64       0.124900
     25 C25          5.4150     3.2770     0.0120 cc         1 Z64      -0.180000
     26 C26          5.7410     1.9750     0.4400 cc         1 Z64      -0.179000
     27 H3          -3.8220    -3.5510    -0.3210 h5         1 Z64       0.047100
     28 H8          -7.7700     1.5970    -0.7040 h5         1 Z64       0.064800
     29 H11         -1.7110     2.4290    -1.2120 h1         1 Z64       0.039033
     30 H11A        -3.2730     1.9170    -1.8700 h1         1 Z64       0.039033
     31 H11B        -3.1970     2.7450    -0.2860 h1         1 Z64       0.039033
     32 H12         -1.4090    -0.2880     1.2200 h1         1 Z64       0.061200
     33 H12A        -0.9200     1.3690     0.9130 h1         1 Z64       0.061200
     34 H13         -0.4880    -0.9640    -1.0300 hc         1 Z64       0.047700
     35 H13A         0.0170     0.7020    -1.3120 hc         1 Z64       0.047700
     36 H14          1.5150     0.5870     0.7040 hc         1 Z64       0.044200
     37 H14A         1.0120    -1.0790     0.9840 hc         1 Z64       0.044200
     38 H15          1.9570    -1.7380    -1.2450 hc         1 Z64       0.048700
     39 H15A         2.4490    -0.0940    -1.5440 hc         1 Z64       0.048700
     40 HN7         -5.2770     2.1210    -0.4530 hn         1 Z64       0.357000
     41 H21          3.1140    -3.8950    -0.6890 hc         1 Z64       0.049033
     42 H21A         3.6480    -4.4210     0.9170 hc         1 Z64       0.049033
     43 H21B         2.1840    -3.4390     0.7530 hc         1 Z64       0.049033
     44 HN18         6.4630    -0.6540     1.3680 hn         1 Z64       0.375000
     45 H24          3.5740     3.9570    -1.0560 h4         1 Z64       0.054100
     46 H25          6.0240     4.1660     0.1420 ha         1 Z64       0.145000
     47 H26          6.6470     1.6790     0.9600 ha         1 Z64       0.140000
@<TRIPOS>BOND
     1     1     4 ar  
     2     1     5 ar  
     3     1    12 1   
     4     2     5 ar  
     5     2    13 ar  
     6     2    27 1   
     7     3     4 ar  
     8     3    13 ar  
     9     3    14 1   
    10     4    15 1   
    11     6    14 2   
    12     6    15 1   
    13     6    28 1   
    14     7    12 1   
    15     7    29 1   
    16     7    30 1   
    17     7    31 1   
    18     8     9 1   
    19     8    12 1   
    20     8    32 1   
    21     8    33 1   
    22     9    10 1   
    23     9    34 1   
    24     9    35 1   
    25    10    11 1   
    26    10    36 1   
    27    10    37 1   
    28    11    16 1   
    29    11    38 1   
    30    11    39 1   
    31    15    40 1   
    32    16    17 1   
    33    16    19 2   
    34    17    18 1   
    35    17    21 2   
    36    18    41 1   
    37    18    42 1   
    38    18    43 1   
    39    19    20 1   
    40    19    22 1   
    41    20    21 1   
    42    20    44 1   
    43    22    23 1   
    44    22    26 2   
    45    23    24 1   
    46    24    25 2   
    47    24    45 1   
    48    25    26 1   
    49    25    46 1   
    50    26    47 1   
@<TRIPOS>SUBSTRUCTURE
     1 Z64         1 TEMP              0 ****  ****    0 ROOT
