@<TRIPOS>MOLECULE
Z67
   41    43     1     0     0
SMALL
No Charge or Current Charge


@<TRIPOS>ATOM
      1 C1          -1.7480    -0.4620    -0.3660 cc         1 Z67      -0.447600
      2 C2          -0.6760    -1.1310    -0.8670 cd         1 Z67       0.686900
      3 N3           0.5580    -0.6860    -0.5340 nd         1 Z67      -0.784000
      4 C4           0.4220     0.3650     0.2390 cc         1 Z67       0.767300
      5 S5          -1.2070     0.8950     0.5880 ss         1 Z67      -0.095400
      6 C6          -3.1480    -0.8490    -0.5810 c          1 Z67       0.684700
      7 N7          -0.6710    -2.1960    -1.6450 nv         1 Z67      -1.041900
      8 N8           1.5230     1.0220     0.6930 nu         1 Z67      -0.919900
      9 O9          -3.4840    -1.8280    -1.2370 o          1 Z67      -0.622100
     10 C10          5.6700     0.4920     0.2040 ca         1 Z67      -0.308500
     11 C11          4.8430    -0.6310     0.3970 ca         1 Z67       0.023500
     12 C12          3.4570    -0.4590     0.5560 ca         1 Z67      -0.176500
     13 C13          2.8880     0.8240     0.5140 ca         1 Z67       0.359000
     14 C14          3.7180     1.9400     0.3330 ca         1 Z67      -0.176500
     15 C15          5.1050     1.7810     0.1720 ca         1 Z67       0.023500
     16 O17          7.8750    -1.0130     0.5210 o          1 Z67      -0.546000
     17 N18          7.6010     0.1190    -1.6130 n8         1 Z67      -1.002100
     18 O19          8.1500     1.5220     0.2950 o          1 Z67      -0.546000
     19 N20         -4.0430     0.0220     0.0180 ns         1 Z67      -0.154000
     20 C21         -8.2890    -0.0020     0.3420 ca         1 Z67      -0.061000
     21 C22         -7.5760    -1.2020     0.5030 ca         1 Z67      -0.164000
     22 C23         -6.1750    -1.2140     0.4000 ca         1 Z67       0.197000
     23 C24         -5.4640    -0.0220     0.1250 ca         1 Z67      -0.125000
     24 C25         -6.1910     1.1790    -0.0070 ca         1 Z67       0.197000
     25 C26         -7.5910     1.1900     0.0920 ca         1 Z67      -0.164000
     26 F27         -5.5390     2.3400    -0.2470 f          1 Z67      -0.165000
     27 HN7         -1.5530    -2.6950    -1.7060 hn         1 Z67       0.514500
     28 HN7A         0.1760    -2.7490    -1.6260 hn         1 Z67       0.514500
     29 HN8          1.2730     1.9400     1.0440 hn         1 Z67       0.511000
     30 H11          5.2650    -1.6350     0.4280 ha         1 Z67       0.138500
     31 H12          2.8290    -1.3280     0.7210 ha         1 Z67       0.137000
     32 H14          3.2900     2.9380     0.3080 ha         1 Z67       0.137000
     33 H15          5.7320     2.6600     0.0230 ha         1 Z67       0.138500
     34 HN18         8.3130     0.8220    -1.7960 hn         1 Z67       0.472000
     35 HN1A         8.1380    -0.7440    -1.6560 hn         1 Z67       0.472000
     36 HN20        -3.6110     0.8280     0.4520 hn         1 Z67       0.162000
     37 H21         -9.3750     0.0050     0.4230 ha         1 Z67       0.123000
     38 H22         -8.1080    -2.1250     0.7190 ha         1 Z67       0.137500
     39 H26         -8.1330     2.1250    -0.0240 ha         1 Z67       0.137500
     40 S16          7.4390     0.2810     0.0000 sy         1 Z67       1.131600
     41 F28         -5.5240    -2.3760     0.6300 f          1 Z67      -0.165000
@<TRIPOS>BOND
     1     1     2 2   
     2     1     5 1   
     3     1     6 1   
     4     2     3 1   
     5     2     7 1   
     6     3     4 2   
     7     4     5 1   
     8     4     8 1   
     9     6     9 2   
    10     6    19 1   
    11     7    27 1   
    12     7    28 1   
    13     8    13 1   
    14     8    29 1   
    15    10    11 ar  
    16    10    15 ar  
    17    10    40 1   
    18    11    12 ar  
    19    11    30 1   
    20    12    13 ar  
    21    12    31 1   
    22    13    14 ar  
    23    14    15 ar  
    24    14    32 1   
    25    15    33 1   
    26    16    40 2   
    27    17    34 1   
    28    17    35 1   
    29    17    40 1   
    30    18    40 2   
    31    19    23 1   
    32    19    36 1   
    33    20    21 ar  
    34    20    25 ar  
    35    20    37 1   
    36    21    22 ar  
    37    21    38 1   
    38    22    23 ar  
    39    22    41 1   
    40    23    24 ar  
    41    24    25 ar  
    42    24    26 1   
    43    25    39 1   
@<TRIPOS>SUBSTRUCTURE
     1 Z67         1 TEMP              0 ****  ****    0 ROOT
