@<TRIPOS>MOLECULE
Z67
   41    43     1     0     0
SMALL
bcc


@<TRIPOS>ATOM
      1 C1          -1.7690    -0.3670    -0.1260 cc         1 Z67      -0.368000
      2 C2          -0.7520    -1.1770    -0.6200 cd         1 Z67       0.752200
      3 N3           0.5150    -0.7270    -0.4010 nd         1 Z67      -0.784000
      4 C4           0.5140     0.3970     0.2450 cc         1 Z67       0.767300
      5 S5          -1.0500     1.0250     0.6590 ss         1 Z67      -0.240300
      6 C6          -3.1780    -0.6360    -0.2260 c          1 Z67       0.751700
      7 N7          -0.9030    -2.3190    -1.3000 nv         1 Z67      -0.931500
      8 N8           1.6100     1.0970     0.6130 nu         1 Z67      -0.726300
      9 O9          -3.6110    -1.6650    -0.7400 o          1 Z67      -0.622100
     10 C10          5.6810     0.3700     0.1330 ca         1 Z67      -0.308500
     11 C11          4.7760    -0.5650    -0.3520 ca         1 Z67       0.005500
     12 C12          3.4160    -0.3590    -0.2170 ca         1 Z67      -0.194500
     13 C13          2.9500     0.7990     0.4150 ca         1 Z67       0.220600
     14 C14          3.8730     1.7350     0.8950 ca         1 Z67      -0.194500
     15 C15          5.2300     1.5240     0.7590 ca         1 Z67       0.005500
     16 O17          7.6600    -1.3660     0.1870 o          1 Z67      -0.616800
     17 N18          7.6480     0.3130    -1.6380 n8         1 Z67      -0.891700
     18 O19          8.1170     1.0110     0.8150 o          1 Z67      -0.616800
     19 N20         -4.0340     0.3040     0.2850 ns         1 Z67      -0.480100
     20 C21         -8.1910    -0.1910     0.0610 ca         1 Z67      -0.079000
     21 C22         -7.4430    -1.0460     0.8590 ca         1 Z67      -0.182000
     22 C23         -6.0770    -0.8600     0.9270 ca         1 Z67       0.161900
     23 C24         -5.4210     0.1350     0.2110 ca         1 Z67      -0.032400
     24 C25         -6.2130     0.9600    -0.5790 ca         1 Z67       0.161900
     25 C26         -7.5840     0.8250    -0.6610 ca         1 Z67      -0.182000
     26 F27         -5.6040     1.9250    -1.2750 f          1 Z67      -0.129900
     27 HN7         -1.8150    -2.7370    -1.3640 hn         1 Z67       0.459300
     28 HN7A        -0.0950    -2.8920    -1.4740 hn         1 Z67       0.459300
     29 HN8          1.4370     1.9600     1.1070 hn         1 Z67       0.455800
     30 H11          5.1190    -1.4680    -0.8380 ha         1 Z67       0.156500
     31 H12          2.7270    -1.0950    -0.5950 ha         1 Z67       0.155000
     32 H14          3.5240     2.6370     1.3820 ha         1 Z67       0.155000
     33 H15          5.9220     2.2610     1.1430 ha         1 Z67       0.156500
     34 HN18         7.6410     1.2990    -1.8810 hn         1 Z67       0.416800
     35 HN1A         8.5100    -0.1200    -1.9560 hn         1 Z67       0.416800
     36 HN20        -3.6950     1.2170     0.5490 hn         1 Z67       0.328500
     37 H21         -9.2630    -0.3200     0.0030 ha         1 Z67       0.141000
     38 H22         -7.9120    -1.8370     1.4280 ha         1 Z67       0.155500
     39 H26         -8.1610     1.4940    -1.2860 ha         1 Z67       0.155500
     40 S16          7.4070     0.0530    -0.0230 sy         1 Z67       1.273200
     41 F28         -5.3460    -1.6530     1.7110 f          1 Z67      -0.129900
@<TRIPOS>BOND
     1     1     2 2   
     2     1     5 1   
     3     1     6 1   
     4     2     3 1   
     5     2     7 1   
     6     3     4 2   
     7     4     5 1   
     8     4     8 1   
     9     6     9 2   
    10     6    19 1   
    11     7    27 1   
    12     7    28 1   
    13     8    13 1   
    14     8    29 1   
    15    10    11 ar  
    16    10    15 ar  
    17    10    40 1   
    18    11    12 ar  
    19    11    30 1   
    20    12    13 ar  
    21    12    31 1   
    22    13    14 ar  
    23    14    15 ar  
    24    14    32 1   
    25    15    33 1   
    26    16    40 2   
    27    17    34 1   
    28    17    35 1   
    29    17    40 1   
    30    18    40 2   
    31    19    23 1   
    32    19    36 1   
    33    20    21 ar  
    34    20    25 ar  
    35    20    37 1   
    36    21    22 ar  
    37    21    38 1   
    38    22    23 ar  
    39    22    41 1   
    40    23    24 ar  
    41    24    25 ar  
    42    24    26 1   
    43    25    39 1   
@<TRIPOS>SUBSTRUCTURE
     1 Z67         1 TEMP              0 ****  ****    0 ROOT
