@<TRIPOS>MOLECULE
Z68
   42    44     1     0     0
SMALL
No Charge or Current Charge


@<TRIPOS>ATOM
      1 C1           5.2550     0.5920    -0.5490 ca         1 Z68      -0.038000
      2 N1           4.3410     2.3740     0.9960 no         1 Z68       0.695200
      3 O1           5.3430     3.0660     0.7700 o          1 Z68      -0.400500
      4 S1           0.0500     0.2440    -0.4980 ss         1 Z68      -0.108400
      5 C2           4.2350     1.0390     0.3230 ca         1 Z68      -0.186200
      6 N2          -1.8560    -1.4760     0.0890 nc         1 Z68      -0.826000
      7 O2           3.4220     2.7260     1.7470 o          1 Z68      -0.400500
      8 C3           3.1140     0.2060     0.5570 ca         1 Z68      -0.025000
      9 N3          -2.6770     0.5420    -0.6780 nu         1 Z68      -0.904100
     10 O3           1.9990    -3.1310     0.4340 o          1 Z68      -0.601100
     11 C4           3.0050    -1.0490    -0.0810 ca         1 Z68      -0.153600
     12 N4          -0.8280    -3.2810     0.7520 nv         1 Z68      -1.047900
     13 C5           4.0400    -1.4850    -0.9310 ca         1 Z68      -0.027000
     14 C6           5.1550    -0.6650    -1.1670 ca         1 Z68      -0.130000
     15 C7           1.8250    -1.9470     0.1720 c          1 Z68       0.647300
     16 C8           0.4710    -1.3650     0.0810 cd         1 Z68      -0.483600
     17 C9          -0.6730    -2.0510     0.3250 cc         1 Z68       0.709900
     18 C10         -1.6320    -0.2610    -0.3520 cd         1 Z68       0.791300
     19 C11         -4.0860     0.2470    -0.3710 c6         1 Z68       0.232500
     20 C12         -4.9900     0.9370    -1.4230 c6         1 Z68      -0.091400
     21 C13         -6.4910     0.7210    -1.1030 c6         1 Z68      -0.070900
     22 C14         -6.8330     1.2120     0.3260 c6         1 Z68      -0.078400
     23 C15         -5.9260     0.5360     1.3840 c6         1 Z68      -0.070900
     24 C16         -4.4270     0.7520     1.0560 c6         1 Z68      -0.091400
     25 H1           6.1300     1.2090    -0.7490 ha         1 Z68       0.150000
     26 H3           2.3290     0.5230     1.2420 ha         1 Z68       0.160000
     27 HN3         -2.4050     1.4850    -0.9380 hn         1 Z68       0.504000
     28 H1N4        -1.7210    -3.6840     0.5040 hn         1 Z68       0.518000
     29 H2N4        -0.0110    -3.8720     0.6450 hn         1 Z68       0.518000
     30 H5           3.9750    -2.4580    -1.4160 ha         1 Z68       0.136000
     31 H6           5.9460    -1.0060    -1.8320 ha         1 Z68       0.129000
     32 H11         -4.2830    -0.8360    -0.4170 h1         1 Z68       0.085700
     33 H112        -4.7760     2.0150    -1.4570 hc         1 Z68       0.048450
     34 H212        -4.7670     0.5410    -2.4240 hc         1 Z68       0.048450
     35 H113        -7.1100     1.2520    -1.8380 hc         1 Z68       0.044700
     36 H213        -6.7400    -0.3460    -1.1970 hc         1 Z68       0.044700
     37 H114        -6.7160     2.3030     0.3800 hc         1 Z68       0.042700
     38 H214        -7.8880     1.0010     0.5500 hc         1 Z68       0.042700
     39 H115        -6.1510     0.9400     2.3810 hc         1 Z68       0.044700
     40 H215        -6.1440    -0.5400     1.4270 hc         1 Z68       0.044700
     41 H116        -3.8100     0.2250     1.7960 hc         1 Z68       0.048450
     42 H216        -4.1820     1.8190     1.1450 hc         1 Z68       0.048450
@<TRIPOS>BOND
     1     1     5 ar  
     2     1    14 ar  
     3     1    25 1   
     4     2     3 1   
     5     2     5 1   
     6     2     7 1   
     7     4    16 1   
     8     4    18 1   
     9     5     8 ar  
    10     6    17 1   
    11     6    18 2   
    12     8    11 ar  
    13     8    26 1   
    14     9    18 1   
    15     9    19 1   
    16     9    27 1   
    17    10    15 2   
    18    11    13 ar  
    19    11    15 1   
    20    12    17 1   
    21    12    28 1   
    22    12    29 1   
    23    13    14 ar  
    24    13    30 1   
    25    14    31 1   
    26    15    16 1   
    27    16    17 2   
    28    19    20 1   
    29    19    24 1   
    30    19    32 1   
    31    20    21 1   
    32    20    33 1   
    33    20    34 1   
    34    21    22 1   
    35    21    35 1   
    36    21    36 1   
    37    22    23 1   
    38    22    37 1   
    39    22    38 1   
    40    23    24 1   
    41    23    39 1   
    42    23    40 1   
    43    24    41 1   
    44    24    42 1   
@<TRIPOS>SUBSTRUCTURE
     1 Z68         1 TEMP              0 ****  ****    0 ROOT
