@<TRIPOS>MOLECULE
Z68
   42    44     1     0     0
SMALL
bcc


@<TRIPOS>ATOM
      1 C1           5.1410     0.6150    -0.6210 ca         1 Z68      -0.056000
      2 N1           4.2610     2.3260     0.8970 no         1 Z68       0.315200
      3 O1           5.2230     3.0060     0.6340 o          1 Z68      -0.210500
      4 S1           0.0150     0.1730    -0.5060 ss         1 Z68      -0.253300
      5 C2           4.1410     1.0290     0.2450 ca         1 Z68      -0.186200
      6 N2          -1.8780    -1.4760     0.1570 nc         1 Z68      -0.826000
      7 O2           3.3910     2.6560     1.6690 o          1 Z68      -0.210500
      8 C3           3.0300     0.2440     0.5150 ca         1 Z68      -0.043000
      9 N3          -2.6260     0.5780    -0.6330 nu         1 Z68      -0.848900
     10 O3           2.0380    -3.0850     0.5400 o          1 Z68      -0.601100
     11 C4           2.9240    -1.0010    -0.0890 ca         1 Z68      -0.153600
     12 N4          -0.7600    -3.3810     0.8300 nv         1 Z68      -0.937500
     13 C5           3.9370    -1.4420    -0.9400 ca         1 Z68      -0.045000
     14 C6           5.0270    -0.6320    -1.2140 ca         1 Z68      -0.148000
     15 C7           1.7800    -1.9180     0.2180 c          1 Z68       0.647300
     16 C8           0.4650    -1.4190     0.1020 cd         1 Z68      -0.404000
     17 C9          -0.7190    -2.1320     0.3760 cc         1 Z68       0.775200
     18 C10         -1.6590    -0.2700    -0.3090 cd         1 Z68       0.791300
     19 C11         -4.0380     0.3100    -0.3900 c6         1 Z68       0.232500
     20 C12         -4.8820     1.1010    -1.3830 c6         1 Z68      -0.091400
     21 C13         -6.3700     0.8610    -1.1450 c6         1 Z68      -0.070900
     22 C14         -6.7690     1.1840     0.2910 c6         1 Z68      -0.078400
     23 C15         -5.9160     0.4000     1.2840 c6         1 Z68      -0.070900
     24 C16         -4.4280     0.6410     1.0500 c6         1 Z68      -0.091400
     25 H1           5.9970     1.2410    -0.8310 ha         1 Z68       0.168000
     26 H3           2.2710     0.5820     1.2070 ha         1 Z68       0.178000
     27 HN3         -2.3730     1.5100    -0.9240 hn         1 Z68       0.448800
     28 H1N4        -1.6450    -3.8270     1.0000 hn         1 Z68       0.462800
     29 H2N4         0.0950    -3.8920     0.9740 hn         1 Z68       0.462800
     30 H5           3.8660    -2.4190    -1.3990 ha         1 Z68       0.154000
     31 H6           5.7990    -0.9730    -1.8890 ha         1 Z68       0.147000
     32 H11         -4.1960    -0.7570    -0.5660 h1         1 Z68       0.085700
     33 H112        -4.6630     2.1700    -1.2750 hc         1 Z68       0.048450
     34 H212        -4.6090     0.8210    -2.4040 hc         1 Z68       0.048450
     35 H113        -6.9530     1.4600    -1.8470 hc         1 Z68       0.044700
     36 H213        -6.6070    -0.1860    -1.3610 hc         1 Z68       0.044700
     37 H114        -6.6440     2.2570     0.4710 hc         1 Z68       0.042700
     38 H214        -7.8270     0.9640     0.4460 hc         1 Z68       0.042700
     39 H115        -6.1760     0.6710     2.3090 hc         1 Z68       0.044700
     40 H215        -6.1310    -0.6700     1.1830 hc         1 Z68       0.044700
     41 H116        -3.8320     0.0420     1.7420 hc         1 Z68       0.048450
     42 H216        -4.1880     1.6920     1.2470 hc         1 Z68       0.048450
@<TRIPOS>BOND
     1     1     5 ar  
     2     1    14 ar  
     3     1    25 1   
     4     2     3 1   
     5     2     5 1   
     6     2     7 1   
     7     4    16 1   
     8     4    18 1   
     9     5     8 ar  
    10     6    17 1   
    11     6    18 2   
    12     8    11 ar  
    13     8    26 1   
    14     9    18 1   
    15     9    19 1   
    16     9    27 1   
    17    10    15 2   
    18    11    13 ar  
    19    11    15 1   
    20    12    17 1   
    21    12    28 1   
    22    12    29 1   
    23    13    14 ar  
    24    13    30 1   
    25    14    31 1   
    26    15    16 1   
    27    16    17 2   
    28    19    20 1   
    29    19    24 1   
    30    19    32 1   
    31    20    21 1   
    32    20    33 1   
    33    20    34 1   
    34    21    22 1   
    35    21    35 1   
    36    21    36 1   
    37    22    23 1   
    38    22    37 1   
    39    22    38 1   
    40    23    24 1   
    41    23    39 1   
    42    23    40 1   
    43    24    41 1   
    44    24    42 1   
@<TRIPOS>SUBSTRUCTURE
     1 Z68         1 TEMP              0 ****  ****    0 ROOT
