@<TRIPOS>MOLECULE
Z69
  237   239     1     0     0
SMALL
abcg2


@<TRIPOS>ATOM
      1 O47         41.1970   -15.8160     8.9290 o          1 Z69      -0.818500
      2 P46         41.4250   -17.2090     8.4330 p5         1 Z69       1.416800
      3 O48         42.7870   -17.8050     8.2910 o          1 Z69      -0.818500
      4 O49         40.5940   -18.2650     9.3690 os         1 Z69      -0.598400
      5 C50         39.3220   -17.9400     9.8830 c3         1 Z69       0.217600
      6 C51         38.7450   -19.1930    10.5430 c3         1 Z69       0.166300
      7 O52         37.4200   -18.9480    10.9850 os         1 Z69      -0.526000
      8 C53         37.1840   -18.1270    12.1200 c3         1 Z69       0.395300
      9 O54         36.9710   -18.8920    13.2590 oh         1 Z69      -0.697000
     10 C55         35.9330   -17.3120    11.8590 c3         1 Z69      -0.075400
     11 C56         36.0370   -16.4010    10.6450 c3         1 Z69      -0.080400
     12 C57         34.8630   -15.4370    10.5670 c3         1 Z69      -0.073400
     13 C58         34.9070   -14.4750     9.3860 c3         1 Z69      -0.078400
     14 C59         34.8580   -15.1540     8.0250 c3         1 Z69      -0.079400
     15 C60         34.8020   -14.1910     6.8460 c3         1 Z69      -0.071400
     16 C61         34.7530   -14.9520     5.5290 c3         1 Z69      -0.083400
     17 C62         34.8360   -14.1010     4.2690 c3         1 Z69      -0.070400
     18 C63         34.8820   -14.9730     3.0190 c3         1 Z69      -0.080400
     19 C64         35.0200   -14.1970     1.7160 c3         1 Z69      -0.072400
     20 C65         34.9590   -15.0740     0.4670 c3         1 Z69      -0.071400
     21 C66         36.0560   -16.1340     0.3920 c3         1 Z69      -0.078400
     22 C67         36.0740   -16.9290    -0.9200 c3         1 Z69      -0.071400
     23 C68         37.0250   -16.3950    -1.9890 c3         1 Z69      -0.073400
     24 C69         36.7310   -14.9790    -2.4690 c3         1 Z69      -0.087100
     25 C97         39.6610   -19.8170    11.5880 c3         1 Z69       0.140600
     26 O70         40.0820   -18.8310    12.5030 os         1 Z69      -0.478000
     27 C71         40.5210   -19.2550    13.7610 c3         1 Z69       0.392300
     28 O72         39.4500   -19.7790    14.5090 oh         1 Z69      -0.699000
     29 C73         41.0860   -18.0180    14.4350 c3         1 Z69      -0.081400
     30 C74         41.5090   -18.1990    15.8940 c3         1 Z69      -0.056400
     31 C75         40.4240   -17.9620    16.9490 c3         1 Z69      -0.073400
     32 C76         40.1540   -16.5090    17.3490 c3         1 Z69      -0.069400
     33 C77         39.5530   -15.5850    16.2790 c3         1 Z69      -0.075400
     34 C78         40.5790   -14.7460    15.5180 c3         1 Z69      -0.076400
     35 C79         39.9760   -13.9120    14.3860 c3         1 Z69      -0.073400
     36 C80         39.6230   -14.7360    13.1500 c3         1 Z69      -0.076400
     37 C81         38.9410   -13.9740    12.0080 c3         1 Z69      -0.058700
     38 C82         37.5480   -13.5030    12.4200 c3         1 Z69      -0.088100
     39 C83         39.8120   -12.8270    11.4660 c3         1 Z69      -0.058400
     40 C84         39.8040   -12.6790     9.9460 c3         1 Z69      -0.091400
     41 C85         38.4490   -12.3630     9.3270 c3         1 Z69      -0.067400
     42 C86         38.4890   -12.1680     7.8130 c3         1 Z69      -0.068400
     43 C87         38.7130   -13.4510     7.0190 c3         1 Z69      -0.084400
     44 C88         38.7290   -13.2180     5.5140 c3         1 Z69      -0.071400
     45 C89         38.8760   -14.4960     4.7000 c3         1 Z69      -0.084400
     46 C90         38.9370   -14.2350     3.2030 c3         1 Z69      -0.080100
     47 O45         40.5910   -17.2840     7.0000 os         1 Z69      -0.602400
     48 C44         40.8750   -18.1400     5.9090 c6         1 Z69       0.223300
     49 C24         40.6980   -19.6190     6.2640 c6         1 Z69       0.155300
     50 C25         40.9640   -20.5140     5.0530 c6         1 Z69       0.150300
     51 O26         40.8790   -21.8470     5.4860 oh         1 Z69      -0.702000
     52 C27         42.3440   -20.2110     4.4710 c6         1 Z69       0.136300
     53 O28         42.5310   -21.0910     3.3880 oh         1 Z69      -0.659000
     54 C29         42.4760   -18.7500     4.0650 c6         1 Z69       0.124300
     55 O30         41.5650   -18.4600     3.0340 oh         1 Z69      -0.715000
     56 C31         42.2450   -17.8690     5.2910 c6         1 Z69       0.098300
     57 O32         42.2570   -16.5120     4.9050 os         1 Z69      -0.448000
     58 C33         43.4740   -15.8420     4.9120 c6         1 Z69       0.405300
     59 O34         43.5240   -14.9230     5.9630 os         1 Z69      -0.446000
     60 C35         42.8220   -13.7130     5.7460 c6         1 Z69       0.168300
     61 C36         42.7880   -13.0160     7.0950 c3         1 Z69       0.151600
     62 O37         42.0930   -11.8000     6.9510 oh         1 Z69      -0.723000
     63 C38         43.5060   -12.8860     4.6430 c6         1 Z69       0.167300
     64 O39         42.4980   -12.2320     3.9120 oh         1 Z69      -0.690000
     65 C40         44.3740   -13.8130     3.7760 c6         1 Z69       0.087300
     66 O41         44.6240   -13.1400     2.5630 oh         1 Z69      -0.673000
     67 C42         43.7060   -15.1670     3.5410 c6         1 Z69       0.107300
     68 O43         42.4910   -15.0450     2.8480 oh         1 Z69      -0.683000
     69 O23         39.4470   -19.8490     6.8820 os         1 Z69      -0.448000
     70 C22         38.2740   -19.9450     6.1280 c6         1 Z69       0.358300
     71 C91         37.2930   -18.8580     6.5780 c6         1 Z69       0.149300
     72 O92         37.7550   -17.5770     6.2580 oh         1 Z69      -0.716000
     73 C93         35.9100   -19.0500     5.9470 c6         1 Z69       0.176300
     74 O94         35.9290   -18.4860     4.6560 oh         1 Z69      -0.632000
     75 C95         35.5290   -20.5420     5.8950 c6         1 Z69       0.098300
     76 O96         34.1630   -20.6610     6.2070 oh         1 Z69      -0.722000
     77 C20         36.4320   -21.4110     6.7740 c6         1 Z69       0.153300
     78 O21         37.7670   -21.2400     6.3240 os         1 Z69      -0.459000
     79 C19         36.2890   -21.2410     8.2950 c3         1 Z69       0.136600
     80 O18         35.3670   -22.1940     8.7730 os         1 Z69      -0.507000
     81 C16         34.9590   -22.0780    10.1300 c3         1 Z69       0.408300
     82 O17         35.9710   -21.6280    10.9720 oh         1 Z69      -0.681000
     83 C15         33.6460   -21.3070    10.2680 c3         1 Z69      -0.130400
     84 C14         33.5800   -19.9130     9.6560 c3         1 Z69      -0.087400
     85 C13         32.2340   -19.2340     9.8920 c3         1 Z69      -0.070400
     86 C12         32.0300   -18.0420     8.9630 c3         1 Z69      -0.082400
     87 C11         30.7750   -17.2170     9.2370 c3         1 Z69      -0.069400
     88 C10         30.8830   -16.3780    10.5050 c3         1 Z69      -0.079400
     89 C09         29.6620   -15.5210    10.8230 c3         1 Z69      -0.069400
     90 C08         29.2730   -14.5030     9.7490 c3         1 Z69      -0.068400
     91 C07         30.4010   -13.5930     9.2670 c3         1 Z69      -0.074400
     92 C06         31.1420   -12.8410    10.3650 c3         1 Z69      -0.073400
     93 C05         32.1420   -11.8300     9.8120 c3         1 Z69      -0.079400
     94 C04         33.1750   -11.3780    10.8380 c3         1 Z69      -0.075400
     95 C03         34.2030   -10.4110    10.2640 c3         1 Z69      -0.073400
     96 C02         35.3550   -10.0840    11.2100 c3         1 Z69      -0.077400
     97 C01         34.9260    -9.3840    12.4930 c3         1 Z69      -0.087100
     98 H50         39.3900   -17.1070    10.5900 h1         1 Z69       0.025200
     99 H50A        38.6320   -17.6280     9.0920 h1         1 Z69       0.025200
    100 H51         38.6330   -19.9510     9.7630 h1         1 Z69       0.087700
    101 H53         38.0260   -17.4390    12.2580 h2         1 Z69       0.045700
    102 HO54        37.8160   -19.1340    13.6700 ho         1 Z69       0.475000
    103 H55         35.0690   -17.9790    11.7530 hc         1 Z69       0.047200
    104 H55A        35.7490   -16.7030    12.7490 hc         1 Z69       0.047200
    105 H56         36.9680   -15.8250    10.6880 hc         1 Z69       0.053700
    106 H56A        36.0910   -17.0040     9.7350 hc         1 Z69       0.053700
    107 H57         33.9310   -16.0100    10.5300 hc         1 Z69       0.029700
    108 H57A        34.8190   -14.8560    11.4940 hc         1 Z69       0.029700
    109 H58         34.0610   -13.7880     9.4690 hc         1 Z69       0.039200
    110 H58A        35.8060   -13.8550     9.4540 hc         1 Z69       0.039200
    111 H59         35.7250   -15.8100     7.8980 hc         1 Z69       0.041200
    112 H59A        33.9800   -15.8090     7.9850 hc         1 Z69       0.041200
    113 H60         33.9290   -13.5370     6.9410 hc         1 Z69       0.036200
    114 H60A        35.6790   -13.5360     6.8640 hc         1 Z69       0.036200
    115 H61         35.5780   -15.6700     5.5140 hc         1 Z69       0.044700
    116 H61A        33.8350   -15.5500     5.5000 hc         1 Z69       0.044700
    117 H62         33.9820   -13.4170     4.2160 hc         1 Z69       0.035200
    118 H62A        35.7330   -13.4710     4.3110 hc         1 Z69       0.035200
    119 H63         35.7150   -15.6750     3.1250 hc         1 Z69       0.041700
    120 H63A        33.9750   -15.5870     2.9770 hc         1 Z69       0.041700
    121 H64         34.2260   -13.4460     1.6590 hc         1 Z69       0.035200
    122 H64A        35.9630   -13.6390     1.7220 hc         1 Z69       0.035200
    123 H65         33.9850   -15.5730     0.4260 hc         1 Z69       0.028700
    124 H65A        35.0020   -14.4330    -0.4170 hc         1 Z69       0.028700
    125 H66         37.0340   -15.6630     0.5520 hc         1 Z69       0.048200
    126 H66A        35.9280   -16.8300     1.2250 hc         1 Z69       0.048200
    127 H67         36.3600   -17.9630    -0.7100 hc         1 Z69       0.032700
    128 H67A        35.0590   -16.9820    -1.3290 hc         1 Z69       0.032700
    129 H68         38.0480   -16.4380    -1.6050 hc         1 Z69       0.033700
    130 H68A        36.9980   -17.0720    -2.8480 hc         1 Z69       0.033700
    131 H69         37.3960   -14.7000    -3.2870 hc         1 Z69       0.028367
    132 H69A        35.7050   -14.8870    -2.8300 hc         1 Z69       0.028367
    133 H69B        36.8690   -14.2430    -1.6750 hc         1 Z69       0.028367
    134 H97         39.1160   -20.6340    12.0760 h1         1 Z69       0.041200
    135 H97A        40.5240   -20.2670    11.0850 h1         1 Z69       0.041200
    136 H71         41.2960   -20.0290    13.6590 h2         1 Z69       0.017700
    137 HO72        39.4410   -20.7400    14.4480 ho         1 Z69       0.449000
    138 H73         41.9480   -17.7040    13.8410 hc         1 Z69       0.070700
    139 H73A        40.3510   -17.2180    14.3420 hc         1 Z69       0.070700
    140 H74         41.9170   -19.2070    16.0220 hc         1 Z69       0.031200
    141 H74A        42.3440   -17.5240    16.1020 hc         1 Z69       0.031200
    142 H75         39.4890   -18.4270    16.6310 hc         1 Z69       0.040200
    143 H75A        40.7210   -18.4910    17.8590 hc         1 Z69       0.040200
    144 H76         39.4710   -16.5410    18.2020 hc         1 Z69       0.027200
    145 H76A        41.0780   -16.0630    17.7340 hc         1 Z69       0.027200
    146 H77         38.9440   -16.1740    15.5860 hc         1 Z69       0.039700
    147 H77A        38.8550   -14.8910    16.7570 hc         1 Z69       0.039700
    148 H78         41.0690   -14.0800    16.2350 hc         1 Z69       0.033700
    149 H78A        41.3750   -15.3800    15.1140 hc         1 Z69       0.033700
    150 H79         39.0900   -13.3920    14.7640 hc         1 Z69       0.033200
    151 H79A        40.6860   -13.1290    14.1050 hc         1 Z69       0.033200
    152 H80         40.5420   -15.1930    12.7650 hc         1 Z69       0.045700
    153 H80A        38.9750   -15.5720    13.4380 hc         1 Z69       0.045700
    154 H81         38.8130   -14.7050    11.1980 hc         1 Z69       0.069700
    155 H82         37.0100   -13.0440    11.5900 hc         1 Z69       0.024700
    156 H82A        36.9400   -14.3370    12.7780 hc         1 Z69       0.024700
    157 H82B        37.5960   -12.7620    13.2200 hc         1 Z69       0.024700
    158 H83         39.5150   -11.8820    11.9340 hc         1 Z69       0.025700
    159 H83A        40.8520   -12.9900    11.7680 hc         1 Z69       0.025700
    160 H84         40.5070   -11.8850     9.6730 hc         1 Z69       0.062200
    161 H84A        40.2030   -13.5990     9.5140 hc         1 Z69       0.062200
    162 H85         37.7420   -13.1660     9.5500 hc         1 Z69       0.024200
    163 H85A        38.0390   -11.4620     9.7970 hc         1 Z69       0.024200
    164 H86         37.5440   -11.7200     7.4890 hc         1 Z69       0.024700
    165 H86A        39.2710   -11.4440     7.5580 hc         1 Z69       0.024700
    166 H87         39.6510   -13.9300     7.3160 hc         1 Z69       0.057700
    167 H87A        37.9210   -14.1680     7.2670 hc         1 Z69       0.057700
    168 H88         37.8060   -12.7080     5.2130 hc         1 Z69       0.026700
    169 H88A        39.5480   -12.5330     5.2660 hc         1 Z69       0.026700
    170 H89         39.7800   -15.0280     5.0140 hc         1 Z69       0.057700
    171 H89A        38.0390   -15.1660     4.9220 hc         1 Z69       0.057700
    172 H90         39.0080   -15.1630     2.6340 hc         1 Z69       0.021033
    173 H90A        38.0450   -13.7070     2.8610 hc         1 Z69       0.021033
    174 H90B        39.8020   -13.6220     2.9450 hc         1 Z69       0.021033
    175 H44         40.1240   -17.8860     5.1520 h1         1 Z69       0.070700
    176 H24         41.4310   -19.8830     7.0340 h1         1 Z69       0.109700
    177 H25         40.2220   -20.3100     4.2680 h1         1 Z69       0.060700
    178 HO26        41.0870   -22.4110     4.7340 ho         1 Z69       0.506000
    179 H27         43.0910   -20.3960     5.2580 h1         1 Z69       0.051700
    180 HO28        43.4720   -21.1590     3.2010 ho         1 Z69       0.438000
    181 H29         43.5120   -18.5840     3.7250 h1         1 Z69       0.012700
    182 HO30        41.6180   -17.5120     2.8570 ho         1 Z69       0.528000
    183 H31         43.0270   -18.0750     6.0270 h1         1 Z69       0.104700
    184 H33         44.3000   -16.5340     5.1070 h2         1 Z69       0.065700
    185 H35         41.7910   -13.9170     5.4250 h1         1 Z69       0.104700
    186 H36         42.3050   -13.6800     7.8210 h1         1 Z69       0.054200
    187 H36A        43.8210   -12.8530     7.4330 h1         1 Z69       0.054200
    188 HO37        42.0660   -11.3670     7.8080 ho         1 Z69       0.499000
    189 H38         44.1810   -12.1490     5.1020 h1         1 Z69       0.035700
    190 HO39        42.9190   -11.6780     3.2470 ho         1 Z69       0.502000
    191 H40         45.3110   -13.9940     4.3170 h1         1 Z69       0.048700
    192 HO41        45.3390   -13.5880     2.0990 ho         1 Z69       0.442000
    193 H42         44.4010   -15.8070     2.9750 h1         1 Z69       0.017700
    194 HO43        42.6330   -14.4220     2.1270 ho         1 Z69       0.508000
    195 H22         38.4770   -19.8050     5.0570 h2         1 Z69       0.067700
    196 H91         37.1740   -18.9480     7.6660 h1         1 Z69       0.046700
    197 HO92        38.5500   -17.3860     6.7740 ho         1 Z69       0.554000
    198 H93         35.1830   -18.5290     6.5860 h1         1 Z69       0.054700
    199 HO94        35.0310   -18.4970     4.3120 ho         1 Z69       0.436000
    200 H95         35.7160   -20.8750     4.8640 h1         1 Z69       0.046700
    201 HO96        33.8940   -21.5790     6.0940 ho         1 Z69       0.510000
    202 H20         36.2080   -22.4610     6.5580 h1         1 Z69       0.076700
    203 H19         37.2810   -21.4060     8.7320 h1         1 Z69       0.049200
    204 H19A        35.9840   -20.2240     8.5570 h1         1 Z69       0.049200
    205 H16         34.7670   -23.1100    10.4400 h2         1 Z69       0.075700
    206 HO17        36.0690   -20.6670    10.9410 ho         1 Z69       0.482000
    207 H15         32.8610   -21.9160     9.8100 hc         1 Z69       0.045700
    208 H15A        33.4040   -21.2640    11.3350 hc         1 Z69       0.045700
    209 H14         34.3730   -19.2680    10.0500 hc         1 Z69       0.055700
    210 H14A        33.7480   -19.9900     8.5820 hc         1 Z69       0.055700
    211 H13         31.4230   -19.9520     9.7270 hc         1 Z69       0.031700
    212 H13A        32.1590   -18.9280    10.9400 hc         1 Z69       0.031700
    213 H12         32.9050   -17.3860     9.0240 hc         1 Z69       0.044700
    214 H12A        32.0100   -18.4110     7.9320 hc         1 Z69       0.044700
    215 H11         30.5980   -16.5570     8.3820 hc         1 Z69       0.034200
    216 H11A        29.9010   -17.8750     9.2980 hc         1 Z69       0.034200
    217 H10         31.0740   -17.0310    11.3610 hc         1 Z69       0.041700
    218 H10A        31.7670   -15.7390    10.4220 hc         1 Z69       0.041700
    219 H09         28.8030   -16.1740    11.0100 hc         1 Z69       0.032200
    220 H09A        29.8450   -14.9980    11.7650 hc         1 Z69       0.032200
    221 H08         28.8550   -15.0250     8.8840 hc         1 Z69       0.031700
    222 H08A        28.4600   -13.8850    10.1440 hc         1 Z69       0.031700
    223 H07         31.1310   -14.1790     8.6970 hc         1 Z69       0.038700
    224 H07A        29.9830   -12.8730     8.5550 hc         1 Z69       0.038700
    225 H06         30.4290   -12.3300    11.0220 hc         1 Z69       0.036700
    226 H06A        31.6750   -13.5550    11.0010 hc         1 Z69       0.036700
    227 H05         32.6660   -12.2700     8.9560 hc         1 Z69       0.037700
    228 H05A        31.6060   -10.9610     9.4150 hc         1 Z69       0.037700
    229 H04         32.6600   -10.9280    11.6920 hc         1 Z69       0.037700
    230 H04A        33.6960   -12.2610    11.2290 hc         1 Z69       0.037700
    231 H03         34.6180   -10.8420     9.3460 hc         1 Z69       0.037200
    232 H03A        33.7040    -9.4830     9.9630 hc         1 Z69       0.037200
    233 H02         35.8890   -11.0080    11.4580 hc         1 Z69       0.043700
    234 H02A        36.0770    -9.4540    10.6830 hc         1 Z69       0.043700
    235 H01         35.7890    -9.1070    13.0990 hc         1 Z69       0.027033
    236 H01A        34.3710    -8.4700    12.2730 hc         1 Z69       0.027033
    237 H01B        34.2860   -10.0170    13.1090 hc         1 Z69       0.027033
@<TRIPOS>BOND
     1     1     2 1   
     2     2     3 1   
     3     2     4 1   
     4     2    47 1   
     5     4     5 1   
     6     5     6 1   
     7     5    98 1   
     8     5    99 1   
     9     6     7 1   
    10     6    25 1   
    11     6   100 1   
    12     7     8 1   
    13     8     9 1   
    14     8    10 1   
    15     8   101 1   
    16     9   102 1   
    17    10    11 1   
    18    10   103 1   
    19    10   104 1   
    20    11    12 1   
    21    11   105 1   
    22    11   106 1   
    23    12    13 1   
    24    12   107 1   
    25    12   108 1   
    26    13    14 1   
    27    13   109 1   
    28    13   110 1   
    29    14    15 1   
    30    14   111 1   
    31    14   112 1   
    32    15    16 1   
    33    15   113 1   
    34    15   114 1   
    35    16    17 1   
    36    16   115 1   
    37    16   116 1   
    38    17    18 1   
    39    17   117 1   
    40    17   118 1   
    41    18    19 1   
    42    18   119 1   
    43    18   120 1   
    44    19    20 1   
    45    19   121 1   
    46    19   122 1   
    47    20    21 1   
    48    20   123 1   
    49    20   124 1   
    50    21    22 1   
    51    21   125 1   
    52    21   126 1   
    53    22    23 1   
    54    22   127 1   
    55    22   128 1   
    56    23    24 1   
    57    23   129 1   
    58    23   130 1   
    59    24   131 1   
    60    24   132 1   
    61    24   133 1   
    62    25    26 1   
    63    25   134 1   
    64    25   135 1   
    65    26    27 1   
    66    27    28 1   
    67    27    29 1   
    68    27   136 1   
    69    28   137 1   
    70    29    30 1   
    71    29   138 1   
    72    29   139 1   
    73    30    31 1   
    74    30   140 1   
    75    30   141 1   
    76    31    32 1   
    77    31   142 1   
    78    31   143 1   
    79    32    33 1   
    80    32   144 1   
    81    32   145 1   
    82    33    34 1   
    83    33   146 1   
    84    33   147 1   
    85    34    35 1   
    86    34   148 1   
    87    34   149 1   
    88    35    36 1   
    89    35   150 1   
    90    35   151 1   
    91    36    37 1   
    92    36   152 1   
    93    36   153 1   
    94    37    38 1   
    95    37    39 1   
    96    37   154 1   
    97    38   155 1   
    98    38   156 1   
    99    38   157 1   
   100    39    40 1   
   101    39   158 1   
   102    39   159 1   
   103    40    41 1   
   104    40   160 1   
   105    40   161 1   
   106    41    42 1   
   107    41   162 1   
   108    41   163 1   
   109    42    43 1   
   110    42   164 1   
   111    42   165 1   
   112    43    44 1   
   113    43   166 1   
   114    43   167 1   
   115    44    45 1   
   116    44   168 1   
   117    44   169 1   
   118    45    46 1   
   119    45   170 1   
   120    45   171 1   
   121    46   172 1   
   122    46   173 1   
   123    46   174 1   
   124    47    48 1   
   125    48    49 1   
   126    48    56 1   
   127    48   175 1   
   128    49    50 1   
   129    49    69 1   
   130    49   176 1   
   131    50    51 1   
   132    50    52 1   
   133    50   177 1   
   134    51   178 1   
   135    52    53 1   
   136    52    54 1   
   137    52   179 1   
   138    53   180 1   
   139    54    55 1   
   140    54    56 1   
   141    54   181 1   
   142    55   182 1   
   143    56    57 1   
   144    56   183 1   
   145    57    58 1   
   146    58    59 1   
   147    58    67 1   
   148    58   184 1   
   149    59    60 1   
   150    60    61 1   
   151    60    63 1   
   152    60   185 1   
   153    61    62 1   
   154    61   186 1   
   155    61   187 1   
   156    62   188 1   
   157    63    64 1   
   158    63    65 1   
   159    63   189 1   
   160    64   190 1   
   161    65    66 1   
   162    65    67 1   
   163    65   191 1   
   164    66   192 1   
   165    67    68 1   
   166    67   193 1   
   167    68   194 1   
   168    69    70 1   
   169    70    71 1   
   170    70    78 1   
   171    70   195 1   
   172    71    72 1   
   173    71    73 1   
   174    71   196 1   
   175    72   197 1   
   176    73    74 1   
   177    73    75 1   
   178    73   198 1   
   179    74   199 1   
   180    75    76 1   
   181    75    77 1   
   182    75   200 1   
   183    76   201 1   
   184    77    78 1   
   185    77    79 1   
   186    77   202 1   
   187    79    80 1   
   188    79   203 1   
   189    79   204 1   
   190    80    81 1   
   191    81    82 1   
   192    81    83 1   
   193    81   205 1   
   194    82   206 1   
   195    83    84 1   
   196    83   207 1   
   197    83   208 1   
   198    84    85 1   
   199    84   209 1   
   200    84   210 1   
   201    85    86 1   
   202    85   211 1   
   203    85   212 1   
   204    86    87 1   
   205    86   213 1   
   206    86   214 1   
   207    87    88 1   
   208    87   215 1   
   209    87   216 1   
   210    88    89 1   
   211    88   217 1   
   212    88   218 1   
   213    89    90 1   
   214    89   219 1   
   215    89   220 1   
   216    90    91 1   
   217    90   221 1   
   218    90   222 1   
   219    91    92 1   
   220    91   223 1   
   221    91   224 1   
   222    92    93 1   
   223    92   225 1   
   224    92   226 1   
   225    93    94 1   
   226    93   227 1   
   227    93   228 1   
   228    94    95 1   
   229    94   229 1   
   230    94   230 1   
   231    95    96 1   
   232    95   231 1   
   233    95   232 1   
   234    96    97 1   
   235    96   233 1   
   236    96   234 1   
   237    97   235 1   
   238    97   236 1   
   239    97   237 1   
@<TRIPOS>SUBSTRUCTURE
     1 Z69         1 TEMP              0 ****  ****    0 ROOT
