@<TRIPOS>MOLECULE
Z69
  237   239     1     0     0
SMALL
No Charge or Current Charge


@<TRIPOS>ATOM
      1 O47         41.3320   -15.9890     9.2420 o          1 Z69      -0.818500
      2 P46         41.5280   -17.3240     8.6160 p5         1 Z69       1.416800
      3 O48         42.9730   -17.6570     8.4860 o          1 Z69      -0.818500
      4 O49         40.7620   -18.4690     9.4400 os         1 Z69      -0.598400
      5 C50         39.5010   -18.1740    10.0490 c3         1 Z69       0.217600
      6 C51         38.9800   -19.4650    10.7440 c3         1 Z69       0.166300
      7 O52         37.5980   -19.2680    11.1910 os         1 Z69      -0.526000
      8 C53         37.3750   -18.3270    12.2600 c3         1 Z69       0.395300
      9 O54         37.3820   -19.0210    13.4940 oh         1 Z69      -0.697000
     10 C55         36.0040   -17.6470    12.0680 c3         1 Z69      -0.075400
     11 C56         35.8550   -16.8920    10.7250 c3         1 Z69      -0.080400
     12 C57         34.4610   -16.2540    10.5490 c3         1 Z69      -0.073400
     13 C58         34.4000   -15.1150     9.5110 c3         1 Z69      -0.078400
     14 C59         34.8270   -15.5090     8.0820 c3         1 Z69      -0.079400
     15 C60         34.6800   -14.3390     7.0870 c3         1 Z69      -0.071400
     16 C61         35.1050   -14.6920     5.6480 c3         1 Z69      -0.083400
     17 C62         34.9740   -13.5010     4.6750 c3         1 Z69      -0.070400
     18 C63         35.3760   -13.8610     3.2280 c3         1 Z69      -0.080400
     19 C64         35.2610   -12.6630     2.2560 c3         1 Z69      -0.072400
     20 C65         35.5030   -13.0180     0.7690 c3         1 Z69      -0.071400
     21 C66         36.9460   -13.4830     0.4470 c3         1 Z69      -0.078400
     22 C67         37.2140   -13.7780    -1.0520 c3         1 Z69      -0.071400
     23 C68         37.7450   -12.5870    -1.8910 c3         1 Z69      -0.073400
     24 C69         36.7890   -11.3850    -2.0220 c3         1 Z69      -0.087100
     25 C97         39.8870   -19.9720    11.9050 c3         1 Z69       0.140600
     26 O70         40.1630   -18.8760    12.8050 os         1 Z69      -0.478000
     27 C71         40.7080   -19.2110    14.0750 c3         1 Z69       0.392300
     28 O72         39.7210   -19.9280    14.7940 oh         1 Z69      -0.699000
     29 C73         41.0200   -17.8610    14.7590 c3         1 Z69      -0.081400
     30 C74         41.4680   -17.9080    16.2460 c3         1 Z69      -0.056400
     31 C75         40.3300   -17.9050    17.3070 c3         1 Z69      -0.073400
     32 C76         39.7830   -16.5180    17.7520 c3         1 Z69      -0.069400
     33 C77         39.0190   -15.6900    16.6860 c3         1 Z69      -0.075400
     34 C78         39.8950   -14.6540    15.9330 c3         1 Z69      -0.076400
     35 C79         39.1760   -13.9290    14.7680 c3         1 Z69      -0.073400
     36 C80         38.9530   -14.8210    13.5170 c3         1 Z69      -0.076400
     37 C81         38.3410   -14.1130    12.2760 c3         1 Z69      -0.058700
     38 C82         36.8830   -13.6520    12.5380 c3         1 Z69      -0.088100
     39 C83         39.2440   -12.9690    11.7240 c3         1 Z69      -0.058400
     40 C84         39.3340   -12.8670    10.1790 c3         1 Z69      -0.091400
     41 C85         38.0100   -12.5830     9.4280 c3         1 Z69      -0.067400
     42 C86         38.2000   -12.2840     7.9200 c3         1 Z69      -0.068400
     43 C87         38.6980   -13.4900     7.0860 c3         1 Z69      -0.084400
     44 C88         38.9330   -13.1400     5.6000 c3         1 Z69      -0.071400
     45 C89         39.3830   -14.3500     4.7530 c3         1 Z69      -0.084400
     46 C90         39.6750   -13.9850     3.2860 c3         1 Z69      -0.080100
     47 O45         40.7170   -17.4380     7.2130 os         1 Z69      -0.602400
     48 C44         40.9770   -18.4380     6.1800 c6         1 Z69       0.223300
     49 C24         40.6310   -19.8790     6.6900 c6         1 Z69       0.155300
     50 C25         40.8980   -20.9670     5.5960 c6         1 Z69       0.150300
     51 O26         40.6720   -22.2990     6.0960 oh         1 Z69      -0.702000
     52 C27         42.3530   -20.8660     5.0590 c6         1 Z69       0.136300
     53 O28         42.5630   -21.8450     4.0280 oh         1 Z69      -0.659000
     54 C29         42.6520   -19.4490     4.4890 c6         1 Z69       0.124300
     55 O30         41.8790   -19.1990     3.3030 oh         1 Z69      -0.715000
     56 C31         42.4150   -18.3370     5.5590 c6         1 Z69       0.098300
     57 O32         42.5730   -17.0140     4.9780 os         1 Z69      -0.448000
     58 C33         43.9120   -16.6130     4.6160 c6         1 Z69       0.405300
     59 O34         44.0900   -15.2380     5.0220 os         1 Z69      -0.446000
     60 C35         43.5290   -14.2750     4.1010 c6         1 Z69       0.168300
     61 C36         43.4950   -12.9080     4.8580 c3         1 Z69       0.151600
     62 O37         42.9190   -11.8270     4.0970 oh         1 Z69      -0.723000
     63 C38         44.3940   -14.2580     2.7930 c6         1 Z69       0.167300
     64 O39         43.6320   -13.8790     1.6380 oh         1 Z69      -0.690000
     65 C40         45.0610   -15.6510     2.5190 c6         1 Z69       0.087300
     66 O41         45.2960   -15.8140     1.0980 oh         1 Z69      -0.673000
     67 C42         44.2290   -16.8460     3.0800 c6         1 Z69       0.107300
     68 O43         43.0480   -17.0040     2.2610 oh         1 Z69      -0.683000
     69 O23         39.2650   -19.9430     7.2120 os         1 Z69      -0.448000
     70 C22         38.1940   -19.6760     6.2780 c6         1 Z69       0.358300
     71 C91         37.3980   -18.3720     6.6620 c6         1 Z69       0.149300
     72 O92         38.1680   -17.1520     6.5300 oh         1 Z69      -0.716000
     73 C93         36.0730   -18.3360     5.8420 c6         1 Z69       0.176300
     74 O94         36.3500   -18.1910     4.4320 oh         1 Z69      -0.632000
     75 C95         35.2120   -19.6300     6.0930 c6         1 Z69       0.098300
     76 O96         34.0110   -19.3240     6.8280 oh         1 Z69      -0.722000
     77 C20         36.0360   -20.7950     6.7600 c6         1 Z69       0.153300
     78 O21         37.3550   -20.8570     6.1520 os         1 Z69      -0.459000
     79 C19         36.1500   -20.7530     8.3290 c3         1 Z69       0.136600
     80 O18         35.5720   -21.9620     8.8830 os         1 Z69      -0.507000
     81 C16         35.4950   -22.0810    10.3160 c3         1 Z69       0.408300
     82 O17         36.7870   -21.9470    10.8900 oh         1 Z69      -0.681000
     83 C15         34.5670   -20.9980    10.9120 c3         1 Z69      -0.130400
     84 C14         33.1520   -20.8900    10.2940 c3         1 Z69      -0.087400
     85 C13         32.2900   -19.8280    11.0170 c3         1 Z69      -0.070400
     86 C12         31.0630   -19.3530    10.2010 c3         1 Z69      -0.082400
     87 C11         30.1590   -18.3260    10.9320 c3         1 Z69      -0.069400
     88 C10         30.8810   -17.0240    11.3630 c3         1 Z69      -0.079400
     89 C09         29.9610   -15.9520    11.9970 c3         1 Z69      -0.069400
     90 C08         28.9860   -15.2330    11.0260 c3         1 Z69      -0.068400
     91 C07         29.6420   -14.4840     9.8360 c3         1 Z69      -0.074400
     92 C06         30.6930   -13.4210    10.2390 c3         1 Z69      -0.073400
     93 C05         31.2730   -12.6520     9.0310 c3         1 Z69      -0.079400
     94 C04         32.4710   -11.7500     9.4070 c3         1 Z69      -0.075400
     95 C03         33.0730   -10.9960     8.1980 c3         1 Z69      -0.073400
     96 C02         34.4410   -10.3330     8.4850 c3         1 Z69      -0.077400
     97 C01         34.3980    -9.2230     9.5560 c3         1 Z69      -0.087100
     98 H50         39.6080   -17.3640    10.7810 h1         1 Z69       0.025200
     99 H50A        38.7740   -17.8540     9.2920 h1         1 Z69       0.025200
    100 H51         38.9900   -20.2510     9.9780 h1         1 Z69       0.087700
    101 H53         38.1430   -17.5440    12.2830 h2         1 Z69       0.045700
    102 HO54        38.3310   -19.2570    13.6590 ho         1 Z69       0.475000
    103 H55         35.1990   -18.3770    12.1860 hc         1 Z69       0.047200
    104 H55A        35.8710   -16.9270    12.8850 hc         1 Z69       0.047200
    105 H56         36.6220   -16.1140    10.6660 hc         1 Z69       0.053700
    106 H56A        36.0390   -17.5790     9.8900 hc         1 Z69       0.053700
    107 H57         33.7500   -17.0360    10.2620 hc         1 Z69       0.029700
    108 H57A        34.1190   -15.8520    11.5110 hc         1 Z69       0.029700
    109 H58         33.3690   -14.7490     9.4750 hc         1 Z69       0.039200
    110 H58A        35.0190   -14.2790     9.8560 hc         1 Z69       0.039200
    111 H59         35.8710   -15.8430     8.0880 hc         1 Z69       0.041200
    112 H59A        34.2120   -16.3520     7.7460 hc         1 Z69       0.041200
    113 H60         33.6330   -14.0150     7.0750 hc         1 Z69       0.036200
    114 H60A        35.2750   -13.4890     7.4410 hc         1 Z69       0.036200
    115 H61         36.1430   -15.0440     5.6510 hc         1 Z69       0.044700
    116 H61A        34.4840   -15.5200     5.2840 hc         1 Z69       0.044700
    117 H62         33.9360   -13.1440     4.6820 hc         1 Z69       0.035200
    118 H62A        35.5980   -12.6720     5.0310 hc         1 Z69       0.035200
    119 H63         36.4060   -14.2370     3.2300 hc         1 Z69       0.041700
    120 H63A        34.7360   -14.6770     2.8720 hc         1 Z69       0.041700
    121 H64         34.2560   -12.2340     2.3450 hc         1 Z69       0.035200
    122 H64A        35.9650   -11.8780     2.5610 hc         1 Z69       0.035200
    123 H65         34.7970   -13.8020     0.4690 hc         1 Z69       0.028700
    124 H65A        35.2550   -12.1370     0.1680 hc         1 Z69       0.028700
    125 H66         37.6660   -12.7370     0.8060 hc         1 Z69       0.048200
    126 H66A        37.1450   -14.4030     1.0080 hc         1 Z69       0.048200
    127 H67         37.9650   -14.5750    -1.1080 hc         1 Z69       0.032700
    128 H67A        36.3080   -14.1840    -1.5180 hc         1 Z69       0.032700
    129 H68         38.6960   -12.2410    -1.4680 hc         1 Z69       0.033700
    130 H68A        37.9720   -12.9560    -2.8990 hc         1 Z69       0.033700
    131 H69         37.1770   -10.6720    -2.7590 hc         1 Z69       0.028367
    132 H69A        35.7940   -11.7100    -2.3520 hc         1 Z69       0.028367
    133 H69B        36.6920   -10.8560    -1.0670 hc         1 Z69       0.028367
    134 H97         39.3730   -20.7980    12.4140 h1         1 Z69       0.041200
    135 H97A        40.8240   -20.3660    11.4910 h1         1 Z69       0.041200
    136 H71         41.6150   -19.8210    13.9810 h2         1 Z69       0.017700
    137 HO72        40.1470   -20.2010    15.6330 ho         1 Z69       0.449000
    138 H73         41.8180   -17.3820    14.1790 hc         1 Z69       0.070700
    139 H73A        40.1440   -17.2180    14.6550 hc         1 Z69       0.070700
    140 H74         42.0890   -18.8010    16.3920 hc         1 Z69       0.031200
    141 H74A        42.1280   -17.0550    16.4460 hc         1 Z69       0.031200
    142 H75         39.4920   -18.5240    16.9720 hc         1 Z69       0.040200
    143 H75A        40.7200   -18.3970    18.2060 hc         1 Z69       0.040200
    144 H76         39.0930   -16.6990    18.5850 hc         1 Z69       0.027200
    145 H76A        40.6010   -15.9180    18.1710 hc         1 Z69       0.027200
    146 H77         38.5170   -16.3690    15.9870 hc         1 Z69       0.039700
    147 H77A        38.2160   -15.1390    17.1900 hc         1 Z69       0.039700
    148 H78         40.2240   -13.8980    16.6570 hc         1 Z69       0.033700
    149 H78A        40.8080   -15.1250    15.5540 hc         1 Z69       0.033700
    150 H79         38.2160   -13.5380    15.1260 hc         1 Z69       0.033200
    151 H79A        39.7820   -13.0600    14.4860 hc         1 Z69       0.033200
    152 H80         39.9150   -15.2570    13.2210 hc         1 Z69       0.045700
    153 H80A        38.3070   -15.6640    13.7870 hc         1 Z69       0.045700
    154 H81         38.3010   -14.8830    11.4980 hc         1 Z69       0.069700
    155 H82         36.4090   -13.2750    11.6270 hc         1 Z69       0.024700
    156 H82A        36.2740   -14.4840    12.9100 hc         1 Z69       0.024700
    157 H82B        36.8520   -12.8490    13.2840 hc         1 Z69       0.024700
    158 H83         38.9190   -12.0060    12.1370 hc         1 Z69       0.025700
    159 H83A        40.2690   -13.1190    12.0860 hc         1 Z69       0.025700
    160 H84         40.0500   -12.0730     9.9360 hc         1 Z69       0.062200
    161 H84A        39.7690   -13.7980     9.8000 hc         1 Z69       0.062200
    162 H85         37.3360   -13.4420     9.5310 hc         1 Z69       0.024200
    163 H85A        37.5130   -11.7230     9.8940 hc         1 Z69       0.024200
    164 H86         37.2430   -11.9450     7.5080 hc         1 Z69       0.024700
    165 H86A        38.9010   -11.4480     7.8070 hc         1 Z69       0.024700
    166 H87         39.6370   -13.8700     7.5040 hc         1 Z69       0.057700
    167 H87A        37.9660   -14.3020     7.1590 hc         1 Z69       0.057700
    168 H88         38.0110   -12.7270     5.1730 hc         1 Z69       0.026700
    169 H88A        39.6950   -12.3530     5.5350 hc         1 Z69       0.026700
    170 H89         40.2800   -14.7980     5.1980 hc         1 Z69       0.057700
    171 H89A        38.5980   -15.1160     4.7740 hc         1 Z69       0.057700
    172 H90         39.9680   -14.8770     2.7200 hc         1 Z69       0.021033
    173 H90A        38.7860   -13.5530     2.8150 hc         1 Z69       0.021033
    174 H90B        40.4880   -13.2530     3.2220 hc         1 Z69       0.021033
    175 H44         40.2990   -18.2150     5.3460 h1         1 Z69       0.070700
    176 H24         41.3070   -20.1070     7.5250 h1         1 Z69       0.109700
    177 H25         40.2230   -20.7780     4.7480 h1         1 Z69       0.060700
    178 HO26        41.1510   -22.8880     5.4660 ho         1 Z69       0.506000
    179 H27         43.0460   -21.0530     5.8940 h1         1 Z69       0.051700
    180 HO28        42.3470   -21.3680     3.1920 ho         1 Z69       0.438000
    181 H29         43.7180   -19.4310     4.2240 h1         1 Z69       0.012700
    182 HO30        42.2190   -18.3260     2.9440 ho         1 Z69       0.528000
    183 H31         43.1720   -18.4860     6.3370 h1         1 Z69       0.104700
    184 H33         44.6300   -17.2090     5.2010 h2         1 Z69       0.065700
    185 H35         42.4970   -14.5680     3.8630 h1         1 Z69       0.104700
    186 H36         42.9240   -13.0570     5.7850 h1         1 Z69       0.054200
    187 H36A        44.5240   -12.6570     5.1490 h1         1 Z69       0.054200
    188 HO37        42.9530   -11.0210     4.6630 ho         1 Z69       0.499000
    189 H38         45.2120   -13.5360     2.9340 h1         1 Z69       0.035700
    190 HO39        44.0980   -14.3730     0.9180 ho         1 Z69       0.502000
    191 H40         46.0250   -15.6530     3.0510 h1         1 Z69       0.048700
    192 HO41        46.0540   -16.4350     0.9960 ho         1 Z69       0.442000
    193 H42         44.8450   -17.7520     2.9980 h1         1 Z69       0.017700
    194 HO43        43.3110   -16.6420     1.3810 ho         1 Z69       0.508000
    195 H22         38.6190   -19.4940     5.2810 h2         1 Z69       0.067700
    196 H91         37.1190   -18.4540     7.7200 h1         1 Z69       0.046700
    197 HO92        39.0880   -17.3200     6.8800 ho         1 Z69       0.554000
    198 H93         35.4960   -17.4690     6.1860 h1         1 Z69       0.054700
    199 HO94        35.5170   -17.8920     4.0110 ho         1 Z69       0.436000
    200 H95         34.9130   -20.0060     5.1020 h1         1 Z69       0.046700
    201 HO96        33.3670   -20.0510     6.6600 ho         1 Z69       0.510000
    202 H20         35.5250   -21.7350     6.5070 h1         1 Z69       0.076700
    203 H19         37.2050   -20.6750     8.6150 h1         1 Z69       0.049200
    204 H19A        35.6370   -19.8590     8.7020 h1         1 Z69       0.049200
    205 H16         35.0960   -23.0700    10.5830 h2         1 Z69       0.075700
    206 HO17        36.9330   -20.9750    10.9910 ho         1 Z69       0.482000
    207 H15         34.4700   -21.1820    11.9890 hc         1 Z69       0.045700
    208 H15A        35.0550   -20.0280    10.8070 hc         1 Z69       0.045700
    209 H14         33.2450   -20.6200     9.2360 hc         1 Z69       0.055700
    210 H14A        32.6480   -21.8630    10.3350 hc         1 Z69       0.055700
    211 H13         31.9580   -20.2290    11.9820 hc         1 Z69       0.031700
    212 H13A        32.9220   -18.9620    11.2390 hc         1 Z69       0.031700
    213 H12         31.4110   -18.9100     9.2590 hc         1 Z69       0.044700
    214 H12A        30.4550   -20.2260     9.9320 hc         1 Z69       0.044700
    215 H11         29.3260   -18.0730    10.2650 hc         1 Z69       0.034200
    216 H11A        29.7180   -18.8020    11.8160 hc         1 Z69       0.034200
    217 H10         31.6480   -17.2750    12.1050 hc         1 Z69       0.041700
    218 H10A        31.4110   -16.5960    10.5050 hc         1 Z69       0.041700
    219 H09         29.3760   -16.4190    12.7990 hc         1 Z69       0.032200
    220 H09A        30.5890   -15.2000    12.4900 hc         1 Z69       0.032200
    221 H08         28.2690   -15.9610    10.6310 hc         1 Z69       0.031700
    222 H08A        28.3960   -14.5120    11.6060 hc         1 Z69       0.031700
    223 H07         30.1040   -15.2120     9.1580 hc         1 Z69       0.038700
    224 H07A        28.8480   -13.9930     9.2600 hc         1 Z69       0.038700
    225 H06         30.2420   -12.7080    10.9390 hc         1 Z69       0.036700
    226 H06A        31.5160   -13.9120    10.7710 hc         1 Z69       0.036700
    227 H05         31.5950   -13.3720     8.2700 hc         1 Z69       0.037700
    228 H05A        30.4830   -12.0410     8.5770 hc         1 Z69       0.037700
    229 H04         32.1500   -11.0250    10.1650 hc         1 Z69       0.037700
    230 H04A        33.2510   -12.3650     9.8690 hc         1 Z69       0.037700
    231 H03         33.2040   -11.6960     7.3650 hc         1 Z69       0.037200
    232 H03A        32.3620   -10.2350     7.8530 hc         1 Z69       0.037200
    233 H02         35.1590   -11.1020     8.7940 hc         1 Z69       0.043700
    234 H02A        34.8250    -9.9040     7.5510 hc         1 Z69       0.043700
    235 H01         35.3850    -8.7550     9.6560 hc         1 Z69       0.027033
    236 H01A        33.6760    -8.4450     9.2810 hc         1 Z69       0.027033
    237 H01B        34.1170    -9.6300    10.5340 hc         1 Z69       0.027033
@<TRIPOS>BOND
     1     1     2 1   
     2     2     3 1   
     3     2     4 1   
     4     2    47 1   
     5     4     5 1   
     6     5     6 1   
     7     5    98 1   
     8     5    99 1   
     9     6     7 1   
    10     6    25 1   
    11     6   100 1   
    12     7     8 1   
    13     8     9 1   
    14     8    10 1   
    15     8   101 1   
    16     9   102 1   
    17    10    11 1   
    18    10   103 1   
    19    10   104 1   
    20    11    12 1   
    21    11   105 1   
    22    11   106 1   
    23    12    13 1   
    24    12   107 1   
    25    12   108 1   
    26    13    14 1   
    27    13   109 1   
    28    13   110 1   
    29    14    15 1   
    30    14   111 1   
    31    14   112 1   
    32    15    16 1   
    33    15   113 1   
    34    15   114 1   
    35    16    17 1   
    36    16   115 1   
    37    16   116 1   
    38    17    18 1   
    39    17   117 1   
    40    17   118 1   
    41    18    19 1   
    42    18   119 1   
    43    18   120 1   
    44    19    20 1   
    45    19   121 1   
    46    19   122 1   
    47    20    21 1   
    48    20   123 1   
    49    20   124 1   
    50    21    22 1   
    51    21   125 1   
    52    21   126 1   
    53    22    23 1   
    54    22   127 1   
    55    22   128 1   
    56    23    24 1   
    57    23   129 1   
    58    23   130 1   
    59    24   131 1   
    60    24   132 1   
    61    24   133 1   
    62    25    26 1   
    63    25   134 1   
    64    25   135 1   
    65    26    27 1   
    66    27    28 1   
    67    27    29 1   
    68    27   136 1   
    69    28   137 1   
    70    29    30 1   
    71    29   138 1   
    72    29   139 1   
    73    30    31 1   
    74    30   140 1   
    75    30   141 1   
    76    31    32 1   
    77    31   142 1   
    78    31   143 1   
    79    32    33 1   
    80    32   144 1   
    81    32   145 1   
    82    33    34 1   
    83    33   146 1   
    84    33   147 1   
    85    34    35 1   
    86    34   148 1   
    87    34   149 1   
    88    35    36 1   
    89    35   150 1   
    90    35   151 1   
    91    36    37 1   
    92    36   152 1   
    93    36   153 1   
    94    37    38 1   
    95    37    39 1   
    96    37   154 1   
    97    38   155 1   
    98    38   156 1   
    99    38   157 1   
   100    39    40 1   
   101    39   158 1   
   102    39   159 1   
   103    40    41 1   
   104    40   160 1   
   105    40   161 1   
   106    41    42 1   
   107    41   162 1   
   108    41   163 1   
   109    42    43 1   
   110    42   164 1   
   111    42   165 1   
   112    43    44 1   
   113    43   166 1   
   114    43   167 1   
   115    44    45 1   
   116    44   168 1   
   117    44   169 1   
   118    45    46 1   
   119    45   170 1   
   120    45   171 1   
   121    46   172 1   
   122    46   173 1   
   123    46   174 1   
   124    47    48 1   
   125    48    49 1   
   126    48    56 1   
   127    48   175 1   
   128    49    50 1   
   129    49    69 1   
   130    49   176 1   
   131    50    51 1   
   132    50    52 1   
   133    50   177 1   
   134    51   178 1   
   135    52    53 1   
   136    52    54 1   
   137    52   179 1   
   138    53   180 1   
   139    54    55 1   
   140    54    56 1   
   141    54   181 1   
   142    55   182 1   
   143    56    57 1   
   144    56   183 1   
   145    57    58 1   
   146    58    59 1   
   147    58    67 1   
   148    58   184 1   
   149    59    60 1   
   150    60    61 1   
   151    60    63 1   
   152    60   185 1   
   153    61    62 1   
   154    61   186 1   
   155    61   187 1   
   156    62   188 1   
   157    63    64 1   
   158    63    65 1   
   159    63   189 1   
   160    64   190 1   
   161    65    66 1   
   162    65    67 1   
   163    65   191 1   
   164    66   192 1   
   165    67    68 1   
   166    67   193 1   
   167    68   194 1   
   168    69    70 1   
   169    70    71 1   
   170    70    78 1   
   171    70   195 1   
   172    71    72 1   
   173    71    73 1   
   174    71   196 1   
   175    72   197 1   
   176    73    74 1   
   177    73    75 1   
   178    73   198 1   
   179    74   199 1   
   180    75    76 1   
   181    75    77 1   
   182    75   200 1   
   183    76   201 1   
   184    77    78 1   
   185    77    79 1   
   186    77   202 1   
   187    79    80 1   
   188    79   203 1   
   189    79   204 1   
   190    80    81 1   
   191    81    82 1   
   192    81    83 1   
   193    81   205 1   
   194    82   206 1   
   195    83    84 1   
   196    83   207 1   
   197    83   208 1   
   198    84    85 1   
   199    84   209 1   
   200    84   210 1   
   201    85    86 1   
   202    85   211 1   
   203    85   212 1   
   204    86    87 1   
   205    86   213 1   
   206    86   214 1   
   207    87    88 1   
   208    87   215 1   
   209    87   216 1   
   210    88    89 1   
   211    88   217 1   
   212    88   218 1   
   213    89    90 1   
   214    89   219 1   
   215    89   220 1   
   216    90    91 1   
   217    90   221 1   
   218    90   222 1   
   219    91    92 1   
   220    91   223 1   
   221    91   224 1   
   222    92    93 1   
   223    92   225 1   
   224    92   226 1   
   225    93    94 1   
   226    93   227 1   
   227    93   228 1   
   228    94    95 1   
   229    94   229 1   
   230    94   230 1   
   231    95    96 1   
   232    95   231 1   
   233    95   232 1   
   234    96    97 1   
   235    96   233 1   
   236    96   234 1   
   237    97   235 1   
   238    97   236 1   
   239    97   237 1   
@<TRIPOS>SUBSTRUCTURE
     1 Z69         1 TEMP              0 ****  ****    0 ROOT
