@<TRIPOS>MOLECULE
Z6F
   54    56     1     0     0
SMALL
abcg2


@<TRIPOS>ATOM
      1 C01         -2.0850    12.0390    -9.9130 c3         1 Z6F       0.152100
      2 C03         -1.3470    14.0930    -8.9310 c6         1 Z6F       0.152800
      3 C04         -0.3470    15.2320    -9.0200 c6         1 Z6F       0.097000
      4 C06         -0.1610    17.2230   -10.3910 c          1 Z6F       0.652100
      5 C08         -1.8270    17.6160   -12.1660 c6         1 Z6F       0.107000
      6 C09         -1.7200    17.7590   -13.6790 c6         1 Z6F      -0.157700
      7 C10         -3.0510    17.4900   -14.3490 c          1 Z6F       0.611100
      8 C13         -3.9360    16.8120   -16.5740 ca         1 Z6F       0.012000
      9 C14         -5.2870    16.7040   -16.2460 ca         1 Z6F      -0.176000
     10 C15         -6.1870    16.3600   -17.2350 ca         1 Z6F       0.210000
     11 C17         -5.8020    16.1220   -18.5410 ca         1 Z6F       0.036000
     12 C19         -4.4590    16.2370   -18.8640 ca         1 Z6F      -0.047000
     13 C20         -3.5370    16.5790   -17.8940 ca         1 Z6F      -0.183000
     14 C21         -1.2100    19.1640   -14.0240 c6         1 Z6F      -0.071400
     15 C22          0.1020    19.4510   -13.2990 c6         1 Z6F      -0.075700
     16 C23          0.5400    20.8780   -13.5810 c3         1 Z6F       0.167600
     17 C25         -0.0260    19.1920   -11.7990 c6         1 Z6F       0.098000
     18 C27         -0.3210    14.9670   -11.4110 c6         1 Z6F       0.097000
     19 C28         -1.3240    13.8360   -11.3000 c6         1 Z6F       0.152800
     20 F16         -7.4780    16.2480   -16.9130 f          1 Z6F      -0.158000
     21 N02         -1.1810    13.1600   -10.0270 n3         1 Z6F      -0.715600
     22 N05         -0.4880    15.8940   -10.3020 n          1 Z6F      -0.416800
     23 N07         -0.5240    17.8490   -11.5620 n          1 Z6F      -0.416800
     24 N12         -2.9370    17.1220   -15.6550 ns         1 Z6F      -0.147000
     25 O24          1.7950    21.1120   -12.9820 oh         1 Z6F      -0.658000
     26 O26          0.4110    17.8130    -9.4850 o          1 Z6F      -0.616100
     27 CL1         -6.9770    15.6870   -19.7220 cl         1 Z6F      -0.167000
     28 H1          -1.9090    11.5110    -8.9740 h1         1 Z6F       0.032700
     29 H2          -3.1460    12.3320    -9.9400 h1         1 Z6F       0.032700
     30 H3          -1.9130    11.3350   -10.7290 h1         1 Z6F       0.032700
     31 H4          -1.1980    13.5640    -7.9870 h1         1 Z6F       0.039700
     32 H5          -2.3670    14.5160    -8.9080 h1         1 Z6F       0.039700
     33 H6           0.6710    14.8440    -8.8890 h1         1 Z6F       0.053950
     34 H7          -0.5370    15.9380    -8.2140 h1         1 Z6F       0.053950
     35 H8          -2.5400    18.3540   -11.7780 h1         1 Z6F       0.064200
     36 H9          -2.2080    16.6360   -11.8900 h1         1 Z6F       0.064200
     37 H10         -0.9870    17.0300   -14.0450 hc         1 Z6F       0.067700
     38 H11         -5.6510    16.8720   -15.2450 ha         1 Z6F       0.169000
     39 H12         -4.1300    16.0570   -19.8780 ha         1 Z6F       0.132000
     40 H13         -2.4920    16.6620   -18.1660 ha         1 Z6F       0.118000
     41 H14         -1.0660    19.2660   -15.1020 hc         1 Z6F       0.050200
     42 H15         -1.9670    19.9000   -13.7310 hc         1 Z6F       0.050200
     43 H16          0.8640    18.7700   -13.6970 hc         1 Z6F       0.067700
     44 H17          0.5830    21.0260   -14.6690 h1         1 Z6F       0.019700
     45 H18         -0.2240    21.5680   -13.1970 h1         1 Z6F       0.019700
     46 H19          0.9440    19.3050   -11.3210 h1         1 Z6F       0.063700
     47 H20         -0.6990    19.9400   -11.3550 h1         1 Z6F       0.063700
     48 H21         -0.4300    15.4710   -12.3670 h1         1 Z6F       0.053950
     49 H22          0.6940    14.5490   -11.3840 h1         1 Z6F       0.053950
     50 H23         -2.3440    14.2370   -11.4430 h1         1 Z6F       0.039700
     51 H24         -1.1430    13.1220   -12.1070 h1         1 Z6F       0.039700
     52 H26         -1.9960    17.0710   -16.0200 hn         1 Z6F       0.154000
     53 H27          2.0260    22.0360   -13.1170 ho         1 Z6F       0.447000
     54 O11         -4.1150    17.6070   -13.7710 o          1 Z6F      -0.566100
@<TRIPOS>BOND
     1     1    21 1   
     2     1    28 1   
     3     1    29 1   
     4     1    30 1   
     5     2     3 1   
     6     2    21 1   
     7     2    31 1   
     8     2    32 1   
     9     3    22 1   
    10     3    33 1   
    11     3    34 1   
    12     4    22 1   
    13     4    23 1   
    14     4    26 2   
    15     5     6 1   
    16     5    23 1   
    17     5    35 1   
    18     5    36 1   
    19     6     7 1   
    20     6    14 1   
    21     6    37 1   
    22     7    24 1   
    23     7    54 2   
    24     8     9 ar  
    25     8    13 ar  
    26     8    24 1   
    27     9    10 ar  
    28     9    38 1   
    29    10    11 ar  
    30    10    20 1   
    31    11    12 ar  
    32    11    27 1   
    33    12    13 ar  
    34    12    39 1   
    35    13    40 1   
    36    14    15 1   
    37    14    41 1   
    38    14    42 1   
    39    15    16 1   
    40    15    17 1   
    41    15    43 1   
    42    16    25 1   
    43    16    44 1   
    44    16    45 1   
    45    17    23 1   
    46    17    46 1   
    47    17    47 1   
    48    18    19 1   
    49    18    22 1   
    50    18    48 1   
    51    18    49 1   
    52    19    21 1   
    53    19    50 1   
    54    19    51 1   
    55    24    52 1   
    56    25    53 1   
@<TRIPOS>SUBSTRUCTURE
     1 Z6F         1 TEMP              0 ****  ****    0 ROOT
