@<TRIPOS>MOLECULE
Z6F
   54    56     1     0     0
SMALL
No Charge or Current Charge


@<TRIPOS>ATOM
      1 C01         -1.7100    11.6200   -10.1170 c3         1 Z6F       0.152100
      2 C03         -1.4710    13.8250    -9.0340 c6         1 Z6F       0.152800
      3 C04         -0.7080    15.1800    -9.0260 c6         1 Z6F       0.097000
      4 C06         -0.3380    17.2460   -10.3940 c          1 Z6F       0.652100
      5 C08         -1.8430    17.8090   -12.3200 c6         1 Z6F       0.107000
      6 C09         -1.7680    18.2700   -13.7910 c6         1 Z6F      -0.157700
      7 C10         -3.1050    18.0830   -14.5350 c          1 Z6F       0.611100
      8 C13         -4.0760    16.7050   -16.4780 ca         1 Z6F       0.012000
      9 C14         -5.4100    17.1690   -16.4720 ca         1 Z6F      -0.176000
     10 C15         -6.3380    16.6680   -17.4000 ca         1 Z6F       0.210000
     11 C17         -5.9510    15.6990   -18.3450 ca         1 Z6F       0.036000
     12 C19         -4.6270    15.2340   -18.3560 ca         1 Z6F      -0.047000
     13 C20         -3.6980    15.7350   -17.4270 ca         1 Z6F      -0.183000
     14 C21         -1.1570    19.6800   -13.9610 c6         1 Z6F      -0.071400
     15 C22          0.2140    19.7510   -13.2480 c6         1 Z6F      -0.075700
     16 C23          0.8370    21.1700   -13.3700 c3         1 Z6F       0.167600
     17 C25          0.0890    19.2970   -11.7660 c6         1 Z6F       0.098000
     18 C27         -0.4270    14.9780   -11.4950 c6         1 Z6F       0.097000
     19 C28         -1.2090    13.6370   -11.4480 c6         1 Z6F       0.152800
     20 F16         -7.6100    17.1270   -17.3760 f          1 Z6F      -0.158000
     21 N02         -1.0380    12.9370   -10.1470 n3         1 Z6F      -0.715600
     22 N05         -0.7150    15.8890   -10.3400 n          1 Z6F      -0.416800
     23 N07         -0.5430    17.9550   -11.5970 n          1 Z6F      -0.416800
     24 N12         -3.0780    17.1600   -15.5740 ns         1 Z6F      -0.147000
     25 O24          2.1650    21.2200   -12.8360 oh         1 Z6F      -0.658000
     26 O26          0.1560    17.7960    -9.4200 o          1 Z6F      -0.616100
     27 Cl1         -7.1080    15.0630   -19.5150 cl         1 Z6F      -0.167000
     28 H1          -1.5240    11.1120    -9.1610 h1         1 Z6F       0.032700
     29 H2          -2.7950    11.7300   -10.2430 h1         1 Z6F       0.032700
     30 H3          -1.3330    10.9750   -10.9220 h1         1 Z6F       0.032700
     31 H4          -1.3130    13.3290    -8.0660 h1         1 Z6F       0.039700
     32 H5          -2.5480    14.0320    -9.1170 h1         1 Z6F       0.039700
     33 H6           0.3350    14.9960    -8.7340 h1         1 Z6F       0.053950
     34 H7          -1.1540    15.8270    -8.2580 h1         1 Z6F       0.053950
     35 H8          -2.5890    18.4260   -11.7970 h1         1 Z6F       0.064200
     36 H9          -2.2200    16.7790   -12.2740 h1         1 Z6F       0.064200
     37 H10         -1.0640    17.5810   -14.2770 hc         1 Z6F       0.067700
     38 H11         -5.7530    17.9140   -15.7630 ha         1 Z6F       0.169000
     39 H12         -4.3210    14.4850   -19.0840 ha         1 Z6F       0.132000
     40 H13         -2.6750    15.3650   -17.4480 ha         1 Z6F       0.118000
     41 H14         -1.0420    19.9170   -15.0280 hc         1 Z6F       0.050200
     42 H15         -1.8380    20.4350   -13.5400 hc         1 Z6F       0.050200
     43 H16          0.9050    19.0660   -13.7590 hc         1 Z6F       0.067700
     44 H17          0.8530    21.4530   -14.4310 h1         1 Z6F       0.019700
     45 H18          0.1910    21.8860   -12.8450 h1         1 Z6F       0.019700
     46 H19          1.0930    19.2790   -11.3170 h1         1 Z6F       0.063700
     47 H20         -0.5020    20.0370   -11.2070 h1         1 Z6F       0.063700
     48 H21         -0.6150    15.4670   -12.4570 h1         1 Z6F       0.053950
     49 H22          0.6470    14.7450   -11.4770 h1         1 Z6F       0.053950
     50 H23         -2.2740    13.8450   -11.6290 h1         1 Z6F       0.039700
     51 H24         -0.8610    12.9990   -12.2730 h1         1 Z6F       0.039700
     52 H26         -2.1750    16.7260   -15.7160 hn         1 Z6F       0.154000
     53 H27          2.4930    22.1370   -12.9720 ho         1 Z6F       0.447000
     54 O11         -4.0990    18.7170   -14.2050 o          1 Z6F      -0.566100
@<TRIPOS>BOND
     1     1    21 1   
     2     1    28 1   
     3     1    29 1   
     4     1    30 1   
     5     2     3 1   
     6     2    21 1   
     7     2    31 1   
     8     2    32 1   
     9     3    22 1   
    10     3    33 1   
    11     3    34 1   
    12     4    22 1   
    13     4    23 1   
    14     4    26 2   
    15     5     6 1   
    16     5    23 1   
    17     5    35 1   
    18     5    36 1   
    19     6     7 1   
    20     6    14 1   
    21     6    37 1   
    22     7    24 1   
    23     7    54 2   
    24     8     9 ar  
    25     8    13 ar  
    26     8    24 1   
    27     9    10 ar  
    28     9    38 1   
    29    10    11 ar  
    30    10    20 1   
    31    11    12 ar  
    32    11    27 1   
    33    12    13 ar  
    34    12    39 1   
    35    13    40 1   
    36    14    15 1   
    37    14    41 1   
    38    14    42 1   
    39    15    16 1   
    40    15    17 1   
    41    15    43 1   
    42    16    25 1   
    43    16    44 1   
    44    16    45 1   
    45    17    23 1   
    46    17    46 1   
    47    17    47 1   
    48    18    19 1   
    49    18    22 1   
    50    18    48 1   
    51    18    49 1   
    52    19    21 1   
    53    19    50 1   
    54    19    51 1   
    55    24    52 1   
    56    25    53 1   
@<TRIPOS>SUBSTRUCTURE
     1 Z6F         1 TEMP              0 ****  ****    0 ROOT
