@<TRIPOS>MOLECULE
Z6G
   24    24     1     0     0
SMALL
abcg2


@<TRIPOS>ATOM
      1 O1         -13.1490    10.3030     6.0710 oh         1 Z6G      -0.684000
      2 C1         -12.3310     9.1770     6.0400 c6         1 Z6G       0.398300
      3 C2         -11.4850     9.1790     7.3060 c6         1 Z6G      -0.130400
      4 C3         -12.3600     8.8860     8.5100 c6         1 Z6G       0.110300
      5 C4         -13.1200     7.5860     8.3130 c6         1 Z6G       0.118300
      6 C5         -13.9260     7.6840     7.0090 c6         1 Z6G       0.154300
      7 C6         -14.6350     6.3880     6.6790 c3         1 Z6G      -0.097100
      8 O2         -13.9470     7.4060     9.4350 oh         1 Z6G      -0.733000
      9 O3         -13.0620     7.9840     5.9240 os         1 Z6G      -0.462000
     10 N1         -11.5340     8.7970     9.7490 nz         1 Z6G      -0.974000
     11 H1O        -13.5950    10.3920     5.2200 ho         1 Z6G       0.489000
     12 H11        -11.6750     9.1840     5.1630 h2         1 Z6G       0.100700
     13 H21        -10.7170     8.4060     7.2090 hc         1 Z6G       0.082700
     14 H22        -10.9740    10.1370     7.4120 hc         1 Z6G       0.082700
     15 H31        -13.0660     9.7000     8.6880 hx         1 Z6G       0.136700
     16 H41        -12.3940     6.7660     8.2110 h1         1 Z6G       0.057700
     17 H51        -14.6740     8.4780     7.1370 h1         1 Z6G       0.075700
     18 H61        -15.1930     6.4820     5.7470 hc         1 Z6G       0.063033
     19 H62        -13.9270     5.5640     6.5750 hc         1 Z6G       0.063033
     20 H63        -15.3500     6.1290     7.4590 hc         1 Z6G       0.063033
     21 H2O        -14.1390     6.4700     9.5430 ho         1 Z6G       0.547000
     22 H11N       -12.1110     8.5490    10.5550 hn         1 Z6G       0.512667
     23 H12N       -10.7990     8.0910     9.6750 hn         1 Z6G       0.512667
     24 HN'3       -11.0780     9.6860     9.9640 hn         1 Z6G       0.512667
@<TRIPOS>BOND
     1     1     2 1   
     2     1    11 1   
     3     2     3 1   
     4     2     9 1   
     5     2    12 1   
     6     3     4 1   
     7     3    13 1   
     8     3    14 1   
     9     4     5 1   
    10     4    10 1   
    11     4    15 1   
    12     5     6 1   
    13     5     8 1   
    14     5    16 1   
    15     6     7 1   
    16     6     9 1   
    17     6    17 1   
    18     7    18 1   
    19     7    19 1   
    20     7    20 1   
    21     8    21 1   
    22    10    22 1   
    23    10    23 1   
    24    10    24 1   
@<TRIPOS>SUBSTRUCTURE
     1 Z6G         1 TEMP              0 ****  ****    0 ROOT
