@<TRIPOS>MOLECULE
Z6G
   24    24     1     0     0
SMALL
No Charge or Current Charge


@<TRIPOS>ATOM
      1 O1         -13.2190    10.2870     6.0180 oh         1 Z6G      -0.684000
      2 C1         -12.2950     9.2070     6.0110 c6         1 Z6G       0.398300
      3 C2         -11.4510     9.1980     7.3070 c6         1 Z6G      -0.130400
      4 C3         -12.3390     8.9130     8.5360 c6         1 Z6G       0.110300
      5 C4         -13.1300     7.5910     8.3440 c6         1 Z6G       0.118300
      6 C5         -13.9440     7.6930     7.0140 c6         1 Z6G       0.154300
      7 C6         -14.6750     6.3780     6.6440 c3         1 Z6G      -0.097100
      8 O2         -13.9820     7.3780     9.4890 oh         1 Z6G      -0.733000
      9 O3         -13.0520     7.9860     5.9070 os         1 Z6G      -0.462000
     10 N1         -11.4550     8.8150     9.7970 nz         1 Z6G      -0.974000
     11 H1O        -13.7490    10.1680     5.2010 ho         1 Z6G       0.489000
     12 H11        -11.6200     9.2950     5.1420 h2         1 Z6G       0.100700
     13 H21        -10.6670     8.4340     7.2150 hc         1 Z6G       0.082700
     14 H22        -10.9400    10.1630     7.4210 hc         1 Z6G       0.082700
     15 H31        -13.0440     9.7410     8.6930 hx         1 Z6G       0.136700
     16 H41        -12.4090     6.7650     8.2480 h1         1 Z6G       0.057700
     17 H51        -14.6950     8.4930     7.1010 h1         1 Z6G       0.075700
     18 H61        -15.1800     6.4730     5.6750 hc         1 Z6G       0.063033
     19 H62        -13.9740     5.5380     6.5760 hc         1 Z6G       0.063033
     20 H63        -15.4390     6.1230     7.3860 hc         1 Z6G       0.063033
     21 H2O        -14.2640     6.4320     9.4770 ho         1 Z6G       0.547000
     22 H11N       -12.0190     8.5520    10.6210 hn         1 Z6G       0.512667
     23 H12N       -10.7170     8.1000     9.7280 hn         1 Z6G       0.512667
     24 HN'3       -10.9850     9.6990    10.0420 hn         1 Z6G       0.512667
@<TRIPOS>BOND
     1     1     2 1   
     2     1    11 1   
     3     2     3 1   
     4     2     9 1   
     5     2    12 1   
     6     3     4 1   
     7     3    13 1   
     8     3    14 1   
     9     4     5 1   
    10     4    10 1   
    11     4    15 1   
    12     5     6 1   
    13     5     8 1   
    14     5    16 1   
    15     6     7 1   
    16     6     9 1   
    17     6    17 1   
    18     7    18 1   
    19     7    19 1   
    20     7    20 1   
    21     8    21 1   
    22    10    22 1   
    23    10    23 1   
    24    10    24 1   
@<TRIPOS>SUBSTRUCTURE
     1 Z6G         1 TEMP              0 ****  ****    0 ROOT
