@<TRIPOS>MOLECULE
Z6H
   24    24     1     0     0
SMALL
No Charge or Current Charge


@<TRIPOS>ATOM
      1 O1           4.1170     6.5750     2.5100 oh         1 Z6H      -0.725000
      2 C1           3.1180     7.1910     3.3190 c6         1 Z6H       0.363300
      3 O5           2.8230     6.3060     4.4220 os         1 Z6H      -0.450000
      4 C5           2.2920     4.9950     4.0560 c6         1 Z6H       0.172300
      5 C6           2.0430     4.1790     5.3690 c3         1 Z6H       0.170600
      6 O6           3.2160     4.0520     6.2010 oh         1 Z6H      -0.706000
      7 C4           0.9870     5.1420     3.2010 c6         1 Z6H       0.146300
      8 O4           0.5130     3.8570     2.7340 oh         1 Z6H      -0.702000
      9 C3           1.2440     6.0910     1.9840 c6         1 Z6H       0.132300
     10 O3           2.1580     5.4620     1.0570 oh         1 Z6H      -0.713000
     11 C2           1.8140     7.4590     2.4810 c6         1 Z6H       0.074300
     12 O2           0.8050     8.1530     3.2560 oh         1 Z6H      -0.707000
     13 HO1          3.5680     6.0770     1.8430 ho         1 Z6H       0.525000
     14 H1           3.5000     8.1460     3.7150 h2         1 Z6H       0.095700
     15 H5           3.0470     4.4500     3.4720 h1         1 Z6H       0.076700
     16 H61          1.2380     4.6730     5.9290 h1         1 Z6H       0.030700
     17 H62          1.6790     3.1820     5.0890 h1         1 Z6H       0.030700
     18 HO6          2.9360     3.5840     7.0210 ho         1 Z6H       0.500000
     19 H4           0.2220     5.6060     3.8420 h1         1 Z6H       0.061700
     20 HO4         -0.4600     3.9380     2.5920 ho         1 Z6H       0.505000
     21 H3           0.2840     6.2820     1.4800 h1         1 Z6H       0.050700
     22 HO3          1.7730     4.5670     0.8800 ho         1 Z6H       0.509000
     23 H2           2.0790     8.0650     1.6020 h1         1 Z6H       0.043700
     24 HO2          1.1210     9.0760     3.4050 ho         1 Z6H       0.515000
@<TRIPOS>BOND
     1     1     2 1   
     2     1    13 1   
     3     2     3 1   
     4     2    11 1   
     5     2    14 1   
     6     3     4 1   
     7     4     5 1   
     8     4     7 1   
     9     4    15 1   
    10     5     6 1   
    11     5    16 1   
    12     5    17 1   
    13     6    18 1   
    14     7     8 1   
    15     7     9 1   
    16     7    19 1   
    17     8    20 1   
    18     9    10 1   
    19     9    11 1   
    20     9    21 1   
    21    10    22 1   
    22    11    12 1   
    23    11    23 1   
    24    12    24 1   
@<TRIPOS>SUBSTRUCTURE
     1 Z6H         1 TEMP              0 ****  ****    0 ROOT
