@<TRIPOS>MOLECULE
Z6H
   24    24     1     0     0
SMALL
bcc


@<TRIPOS>ATOM
      1 O1           4.1120     6.6190     2.5070 oh         1 Z6H      -0.602800
      2 C1           3.0490     7.0900     3.2710 c6         1 Z6H       0.316900
      3 O5           2.7710     6.2800     4.3830 os         1 Z6H      -0.403600
      4 C5           2.2590     4.9880     4.1060 c6         1 Z6H       0.149100
      5 C6           2.0220     4.3040     5.4380 c3         1 Z6H       0.147400
      6 O6           3.2560     4.1560     6.1010 oh         1 Z6H      -0.583800
      7 C4           0.9650     5.1000     3.2980 c6         1 Z6H       0.123100
      8 O4           0.5330     3.8000     2.9810 oh         1 Z6H      -0.579800
      9 C3           1.1800     5.9520     2.0460 c6         1 Z6H       0.109100
     10 O3           2.0580     5.2570     1.1790 oh         1 Z6H      -0.590800
     11 C2           1.7810     7.3070     2.4300 c6         1 Z6H       0.051100
     12 O2           0.7990     8.0060     3.1520 oh         1 Z6H      -0.584800
     13 HO1          3.7680     5.9790     1.8670 ho         1 Z6H       0.426000
     14 H1           3.3690     8.0460     3.7000 h2         1 Z6H       0.095700
     15 H5           2.9900     4.3900     3.5420 h1         1 Z6H       0.076700
     16 H61          1.3120     4.9040     6.0260 h1         1 Z6H       0.030700
     17 H62          1.5480     3.3360     5.2500 h1         1 Z6H       0.030700
     18 HO6          3.1040     3.6400     6.8980 ho         1 Z6H       0.401000
     19 H4           0.2240     5.6200     3.9210 h1         1 Z6H       0.061700
     20 HO4         -0.3660     3.8510     2.6430 ho         1 Z6H       0.406000
     21 H3           0.2100     6.1150     1.5570 h1         1 Z6H       0.050700
     22 HO3          1.9800     5.6330     0.2950 ho         1 Z6H       0.410000
     23 H2           2.0620     7.8480     1.5150 h1         1 Z6H       0.043700
     24 HO2          1.1290     8.8880     3.3520 ho         1 Z6H       0.416000
@<TRIPOS>BOND
     1     1     2 1   
     2     1    13 1   
     3     2     3 1   
     4     2    11 1   
     5     2    14 1   
     6     3     4 1   
     7     4     5 1   
     8     4     7 1   
     9     4    15 1   
    10     5     6 1   
    11     5    16 1   
    12     5    17 1   
    13     6    18 1   
    14     7     8 1   
    15     7     9 1   
    16     7    19 1   
    17     8    20 1   
    18     9    10 1   
    19     9    11 1   
    20     9    21 1   
    21    10    22 1   
    22    11    12 1   
    23    11    23 1   
    24    12    24 1   
@<TRIPOS>SUBSTRUCTURE
     1 Z6H         1 TEMP              0 ****  ****    0 ROOT
