@<TRIPOS>MOLECULE
Z6I
   27    28     1     0     0
SMALL
No Charge or Current Charge


@<TRIPOS>ATOM
      1 C01         28.5240   -41.3030    10.1030 c3         1 Z6I      -0.028800
      2 C02         27.7690   -40.1900    10.7840 cc         1 Z6I      -0.134300
      3 N03         27.4740   -40.1590    12.1470 na         1 Z6I      -0.005200
      4 N04         26.7710   -39.0330    12.5450 nc         1 Z6I      -0.519800
      5 C05         26.6330   -38.3660    11.4150 cd         1 Z6I       0.242900
      6 C06         27.2230   -39.0230    10.3120 cd         1 Z6I      -0.194300
      7 C07         27.2090   -38.4710     8.8940 c6         1 Z6I       0.025600
      8 C08         26.2450   -39.2660     7.9760 c6         1 Z6I      -0.108900
      9 C09         26.2430   -38.6840     6.5410 c6         1 Z6I       0.146800
     10 N10         27.6160   -38.6330     5.9820 n7         1 Z6I      -0.845400
     11 C11         28.5460   -37.8330     6.8170 c6         1 Z6I       0.146800
     12 C12         28.6220   -38.3990     8.2560 c6         1 Z6I      -0.108900
     13 H1          29.5810   -41.0370     9.9790 hc         1 Z6I       0.049700
     14 H2          28.4810   -42.2280    10.6920 hc         1 Z6I       0.049700
     15 H3          28.1110   -41.5250     9.1140 hc         1 Z6I       0.049700
     16 H4          27.7340   -40.8770    12.8230 hn         1 Z6I       0.367000
     17 H5          26.1080   -37.4190    11.4220 h4         1 Z6I       0.034100
     18 H6          26.8290   -37.4400     8.9420 hc         1 Z6I       0.052700
     19 H7          25.2270   -39.2340     8.3860 hc         1 Z6I       0.043950
     20 H8          26.5320   -40.3240     7.9400 hc         1 Z6I       0.043950
     21 H9          25.8150   -37.6700     6.5580 h1         1 Z6I       0.051200
     22 H10         25.6010   -39.3010     5.8940 h1         1 Z6I       0.051200
     23 H11         27.9770   -39.5940     5.9330 hn         1 Z6I       0.400000
     24 H13         29.5500   -37.8390     6.3650 h1         1 Z6I       0.051200
     25 H14         28.2050   -36.7870     6.8510 h1         1 Z6I       0.051200
     26 H15         29.0860   -39.3920     8.2230 hc         1 Z6I       0.043950
     27 H16         29.2780   -37.7660     8.8680 hc         1 Z6I       0.043950
@<TRIPOS>BOND
     1     1     2 1   
     2     1    13 1   
     3     1    14 1   
     4     1    15 1   
     5     2     3 1   
     6     2     6 2   
     7     3     4 1   
     8     3    16 1   
     9     4     5 2   
    10     5     6 1   
    11     5    17 1   
    12     6     7 1   
    13     7     8 1   
    14     7    12 1   
    15     7    18 1   
    16     8     9 1   
    17     8    19 1   
    18     8    20 1   
    19     9    10 1   
    20     9    21 1   
    21     9    22 1   
    22    10    11 1   
    23    10    23 1   
    24    11    12 1   
    25    11    24 1   
    26    11    25 1   
    27    12    26 1   
    28    12    27 1   
@<TRIPOS>SUBSTRUCTURE
     1 Z6I         1 TEMP              0 ****  ****    0 ROOT
