@<TRIPOS>MOLECULE
Z6I
   27    28     1     0     0
SMALL
abcg2


@<TRIPOS>ATOM
      1 C01         28.3970   -41.3440    10.1300 c3         1 Z6I      -0.028800
      2 C02         27.7210   -40.1880    10.7820 cc         1 Z6I      -0.134300
      3 N03         27.5010   -40.1580    12.1120 na         1 Z6I      -0.005200
      4 N04         26.9050   -39.0490    12.5340 nc         1 Z6I      -0.519800
      5 C05         26.7350   -38.3360    11.4350 cd         1 Z6I       0.242900
      6 C06         27.2250   -38.9910    10.2910 cd         1 Z6I      -0.194300
      7 C07         27.1950   -38.4740     8.8860 c6         1 Z6I       0.025600
      8 C08         26.3030   -39.3090     7.9590 c6         1 Z6I      -0.108900
      9 C09         26.3100   -38.7370     6.5430 c6         1 Z6I       0.146800
     10 N10         27.6390   -38.5820     5.9720 n7         1 Z6I      -0.845400
     11 C11         28.5080   -37.8040     6.8420 c6         1 Z6I       0.146800
     12 C12         28.5910   -38.3360     8.2710 c6         1 Z6I      -0.108900
     13 H1          29.4170   -41.0970     9.8340 hc         1 Z6I       0.049700
     14 H2          28.4470   -42.2010    10.8010 hc         1 Z6I       0.049700
     15 H3          27.8660   -41.6570     9.2320 hc         1 Z6I       0.049700
     16 H4          27.7430   -40.8790    12.7740 hn         1 Z6I       0.367000
     17 H5          26.2630   -37.3640    11.4820 h4         1 Z6I       0.034100
     18 H6          26.7600   -37.4680     8.9280 hc         1 Z6I       0.052700
     19 H7          25.2820   -39.3370     8.3470 hc         1 Z6I       0.043950
     20 H8          26.6590   -40.3440     7.9320 hc         1 Z6I       0.043950
     21 H9          25.8310   -37.7520     6.5530 h1         1 Z6I       0.051200
     22 H10         25.7140   -39.3660     5.8780 h1         1 Z6I       0.051200
     23 H11         28.0470   -39.5010     5.8410 hn         1 Z6I       0.400000
     24 H13         29.5030   -37.7610     6.3950 h1         1 Z6I       0.051200
     25 H14         28.1300   -36.7760     6.8640 h1         1 Z6I       0.051200
     26 H15         29.0920   -39.3100     8.2610 hc         1 Z6I       0.043950
     27 H16         29.2070   -37.6720     8.8830 hc         1 Z6I       0.043950
@<TRIPOS>BOND
     1     1     2 1   
     2     1    13 1   
     3     1    14 1   
     4     1    15 1   
     5     2     3 1   
     6     2     6 2   
     7     3     4 1   
     8     3    16 1   
     9     4     5 2   
    10     5     6 1   
    11     5    17 1   
    12     6     7 1   
    13     7     8 1   
    14     7    12 1   
    15     7    18 1   
    16     8     9 1   
    17     8    19 1   
    18     8    20 1   
    19     9    10 1   
    20     9    21 1   
    21     9    22 1   
    22    10    11 1   
    23    10    23 1   
    24    11    12 1   
    25    11    24 1   
    26    11    25 1   
    27    12    26 1   
    28    12    27 1   
@<TRIPOS>SUBSTRUCTURE
     1 Z6I         1 TEMP              0 ****  ****    0 ROOT
