@<TRIPOS>MOLECULE
Z6J
   20    20     1     0     0
SMALL
abcg2


@<TRIPOS>ATOM
      1 O5          -3.2850   -28.4080     0.5630 oh         1 Z6J      -0.724000
      2 C5          -2.2990   -28.8690     1.4530 c3         1 Z6J       0.153600
      3 C4          -1.3080   -29.7480     0.7220 c5         1 Z6J       0.160300
      4 O4          -0.5960   -28.9810    -0.2500 os         1 Z6J      -0.463000
      5 C3          -1.9350   -30.9220    -0.0320 c5         1 Z6J       0.147300
      6 O3          -1.0730   -32.0360     0.0950 oh         1 Z6J      -0.729000
      7 C2          -1.9620   -30.4000    -1.4660 c5         1 Z6J       0.064300
      8 O2          -2.0410   -31.4600    -2.3730 oh         1 Z6J      -0.716000
      9 C1          -0.6650   -29.5720    -1.5210 c5         1 Z6J       0.360300
     10 O1           0.4660   -30.3150    -1.8360 oh         1 Z6J      -0.720000
     11 H51         -1.7510   -28.0380     1.9180 h1         1 Z6J       0.032700
     12 H52         -2.7250   -29.4640     2.2710 h1         1 Z6J       0.032700
     13 H4          -0.6090   -30.1310     1.4750 h1         1 Z6J       0.080700
     14 H3          -2.9370   -31.1600     0.3420 h1         1 Z6J       0.065700
     15 HO3         -1.4090   -32.7440    -0.4660 ho         1 Z6J       0.527000
     16 H2          -2.8070   -29.7090    -1.5670 h1         1 Z6J       0.074700
     17 HO2         -2.0970   -31.1070    -3.2670 ho         1 Z6J       0.522000
     18 H1          -0.7080   -28.7660    -2.2580 h2         1 Z6J       0.100700
     19 HO1          0.4500   -31.1410    -1.3360 ho         1 Z6J       0.523000
     20 HO5         -3.9360   -27.9070     1.0620 ho         1 Z6J       0.507000
@<TRIPOS>BOND
     1     1     2 1   
     2     1    20 1   
     3     2     3 1   
     4     2    11 1   
     5     2    12 1   
     6     3     4 1   
     7     3     5 1   
     8     3    13 1   
     9     4     9 1   
    10     5     6 1   
    11     5     7 1   
    12     5    14 1   
    13     6    15 1   
    14     7     8 1   
    15     7     9 1   
    16     7    16 1   
    17     8    17 1   
    18     9    10 1   
    19     9    18 1   
    20    10    19 1   
@<TRIPOS>SUBSTRUCTURE
     1 Z6J         1 TEMP              0 ****  ****    0 ROOT
