@<TRIPOS>MOLECULE
Z6J
   20    20     1     0     0
SMALL
No Charge or Current Charge


@<TRIPOS>ATOM
      1 O5          -3.4640   -28.4840     0.7130 oh         1 Z6J      -0.724000
      2 C5          -2.3070   -28.8510     1.4930 c3         1 Z6J       0.153600
      3 C4          -1.2800   -29.6960     0.6800 c5         1 Z6J       0.160300
      4 O4          -0.6520   -28.8630    -0.3440 os         1 Z6J      -0.463000
      5 C3          -1.8770   -30.9490    -0.0660 c5         1 Z6J       0.147300
      6 O3          -0.9940   -32.0890    -0.0110 oh         1 Z6J      -0.729000
      7 C2          -1.9650   -30.3940    -1.5240 c5         1 Z6J       0.064300
      8 O2          -2.1150   -31.4420    -2.5120 oh         1 Z6J      -0.716000
      9 C1          -0.6140   -29.5930    -1.5770 c5         1 Z6J       0.360300
     10 O1           0.5180   -30.4480    -1.5490 oh         1 Z6J      -0.720000
     11 H51         -1.7990   -27.9530     1.8710 h1         1 Z6J       0.032700
     12 H52         -2.6180   -29.4400     2.3660 h1         1 Z6J       0.032700
     13 H4          -0.4990   -30.0190     1.3820 h1         1 Z6J       0.080700
     14 H3          -2.8710   -31.2120     0.3240 h1         1 Z6J       0.065700
     15 HO3         -1.4130   -32.7680    -0.5980 ho         1 Z6J       0.527000
     16 H2          -2.8040   -29.6870    -1.6040 h1         1 Z6J       0.074700
     17 HO2         -2.0900   -31.0200    -3.4050 ho         1 Z6J       0.522000
     18 H1          -0.5700   -28.9060    -2.4350 h2         1 Z6J       0.100700
     19 HO1          0.2000   -31.1750    -0.9510 ho         1 Z6J       0.523000
     20 HO5         -4.0140   -27.8890     1.2760 ho         1 Z6J       0.507000
@<TRIPOS>BOND
     1     1     2 1   
     2     1    20 1   
     3     2     3 1   
     4     2    11 1   
     5     2    12 1   
     6     3     4 1   
     7     3     5 1   
     8     3    13 1   
     9     4     9 1   
    10     5     6 1   
    11     5     7 1   
    12     5    14 1   
    13     6    15 1   
    14     7     8 1   
    15     7     9 1   
    16     7    16 1   
    17     8    17 1   
    18     9    10 1   
    19     9    18 1   
    20    10    19 1   
@<TRIPOS>SUBSTRUCTURE
     1 Z6J         1 TEMP              0 ****  ****    0 ROOT
