@<TRIPOS>MOLECULE
Z6P
   55    58     1     0     0
SMALL
bcc


@<TRIPOS>ATOM
      1 C1           1.9610    12.9550   -21.0920 cp         1 Z6P      -0.043000
      2 C2           1.1720    13.2160   -19.9590 ca         1 Z6P      -0.038300
      3 C3          -0.1890    12.9490   -20.0170 ca         1 Z6P      -0.182000
      4 C4          -0.8000    12.4210   -21.1550 ca         1 Z6P       0.075600
      5 C5          -0.0130    12.1350   -22.2680 ca         1 Z6P      -0.150000
      6 C6           1.7500    13.7480   -18.6770 c3         1 Z6P      -0.047800
      7 C7           3.4100    13.2290   -21.1280 cp         1 Z6P      -0.226300
      8 C8          -3.0030    11.6320   -21.9820 c          1 Z6P       0.684100
      9 C9          -4.4800    11.6220   -21.5720 c3         1 Z6P       0.109400
     10 C10         -4.8330    10.2160   -21.1330 ca         1 Z6P      -0.083300
     11 C12         -5.6180     8.0250   -21.6470 ca         1 Z6P       0.165400
     12 O2           6.8750    16.4940   -21.0350 o          1 Z6P      -0.621100
     13 N3           5.2410    16.6770   -19.4970 ns         1 Z6P      -0.544900
     14 C21          5.6600    17.9590   -19.0370 cx         1 Z6P       0.044700
     15 C22          4.5980    18.9090   -18.5900 cx         1 Z6P      -0.132400
     16 C23          5.3440    19.1660   -19.8630 cx         1 Z6P      -0.132400
     17 C18          5.3160    14.7030   -20.8620 ca         1 Z6P      -0.352900
     18 C19          3.9550    14.4620   -20.7800 ca         1 Z6P      -0.018000
     19 C17          6.1380    13.6590   -21.3580 ca         1 Z6P       0.723200
     20 N2           7.4770    13.7850   -21.4850 nv         1 Z6P      -0.945500
     21 N1           5.6220    12.4690   -21.6770 nb         1 Z6P      -0.763000
     22 C16          4.3210    12.2710   -21.5600 ca         1 Z6P       0.490200
     23 C            1.3450    12.4100   -22.2160 ca         1 Z6P      -0.095000
     24 N           -2.1850    12.2320   -21.0940 ns         1 Z6P      -0.455100
     25 O           -2.6610    11.1000   -23.0200 o          1 Z6P      -0.575100
     26 O1          -4.6860    12.5770   -20.5720 oh         1 Z6P      -0.605800
     27 C11         -5.3200     9.3070   -22.0650 ca         1 Z6P      -0.168500
     28 C15         -4.6520     9.8360   -19.8080 ca         1 Z6P      -0.168500
     29 C14         -4.9690     8.5430   -19.4450 ca         1 Z6P       0.165400
     30 F           -4.8020     8.1720   -18.1690 f          1 Z6P      -0.133400
     31 C13         -5.4550     7.6090   -20.3400 ca         1 Z6P      -0.207000
     32 F1          -6.0940     7.1480   -22.5380 f          1 Z6P      -0.133400
     33 H1          -0.7950    13.1490   -19.1400 ha         1 Z6P       0.128000
     34 H2          -0.4360    11.7230   -23.1690 ha         1 Z6P       0.166000
     35 H3           1.8850    14.8300   -18.7090 hc         1 Z6P       0.042700
     36 H4           1.0900    13.5330   -17.8390 hc         1 Z6P       0.042700
     37 H5           2.7240    13.3100   -18.4600 hc         1 Z6P       0.042700
     38 H6          -5.0470    11.8590   -22.4810 h1         1 Z6P       0.075700
     39 H7           4.5590    16.1820   -18.9430 hn         1 Z6P       0.319500
     40 H8           6.5970    17.9700   -18.4870 h1         1 Z6P       0.086700
     41 H9           4.8100    19.5270   -17.7280 hc         1 Z6P       0.077700
     42 H10          3.5680    18.5820   -18.6660 hc         1 Z6P       0.077700
     43 H11          6.0740    19.9640   -19.8860 hc         1 Z6P       0.077700
     44 H12          4.8170    19.0070   -20.7950 hc         1 Z6P       0.077700
     45 H13          3.2920    15.2630   -20.4760 ha         1 Z6P       0.135000
     46 H14          7.9570    13.0570   -21.9870 hn         1 Z6P       0.445300
     47 H15          7.8710    14.7090   -21.5300 hn         1 Z6P       0.445300
     48 H16          3.9690    11.2790   -21.8300 h4         1 Z6P       0.022100
     49 H17          1.9410    12.2090   -23.0970 ha         1 Z6P       0.136000
     50 H18         -2.6390    12.6150   -20.2760 hn         1 Z6P       0.339500
     51 H19         -5.6110    12.5660   -20.3010 ho         1 Z6P       0.429000
     52 H20         -5.4760     9.5960   -23.0970 ha         1 Z6P       0.162500
     53 H21         -4.2770    10.5300   -19.0660 ha         1 Z6P       0.162500
     54 H22         -5.7020     6.6010   -20.0300 ha         1 Z6P       0.172000
     55 C20          5.8850    16.0250   -20.4840 c          1 Z6P       0.701700
@<TRIPOS>BOND
     1     1     2 ar  
     2     1     7 1   
     3     1    23 ar  
     4     2     3 ar  
     5     2     6 1   
     6     3     4 ar  
     7     3    33 1   
     8     4     5 ar  
     9     4    24 1   
    10     5    23 ar  
    11     5    34 1   
    12     6    35 1   
    13     6    36 1   
    14     6    37 1   
    15     7    18 ar  
    16     7    22 ar  
    17     8     9 1   
    18     8    24 1   
    19     8    25 2   
    20     9    10 1   
    21     9    26 1   
    22     9    38 1   
    23    10    27 ar  
    24    10    28 ar  
    25    11    27 ar  
    26    11    31 ar  
    27    11    32 1   
    28    12    55 2   
    29    13    14 1   
    30    13    39 1   
    31    13    55 1   
    32    14    15 1   
    33    14    16 1   
    34    14    40 1   
    35    15    16 1   
    36    15    41 1   
    37    15    42 1   
    38    16    43 1   
    39    16    44 1   
    40    17    18 ar  
    41    17    19 ar  
    42    17    55 1   
    43    18    45 1   
    44    19    20 1   
    45    19    21 ar  
    46    20    46 1   
    47    20    47 1   
    48    21    22 ar  
    49    22    48 1   
    50    23    49 1   
    51    24    50 1   
    52    26    51 1   
    53    27    52 1   
    54    28    29 ar  
    55    28    53 1   
    56    29    30 1   
    57    29    31 ar  
    58    31    54 1   
@<TRIPOS>SUBSTRUCTURE
     1 Z6P         1 TEMP              0 ****  ****    0 ROOT
