@<TRIPOS>MOLECULE
Z6P
   55    58     1     0     0
SMALL
No Charge or Current Charge


@<TRIPOS>ATOM
      1 C1           2.0070    12.9490   -20.9940 cp         1 Z6P      -0.043000
      2 C2           1.2010    13.1670   -19.8410 ca         1 Z6P      -0.038300
      3 C3          -0.1850    12.9210   -19.9010 ca         1 Z6P      -0.164000
      4 C4          -0.7990    12.4550   -21.0770 ca         1 Z6P      -0.017000
      5 C5           0.0010    12.2200   -22.2130 ca         1 Z6P      -0.132000
      6 C6           1.7890    13.6350   -18.5130 c3         1 Z6P      -0.047800
      7 C7           3.4800    13.2010   -21.0050 cp         1 Z6P      -0.161000
      8 C8          -3.1210    11.8570   -22.0150 c          1 Z6P       0.617100
      9 C9          -4.5800    11.6820   -21.4830 c3         1 Z6P       0.132600
     10 C10         -4.8770    10.2150   -21.1700 ca         1 Z6P      -0.083300
     11 C12         -5.9970     8.1170   -21.7270 ca         1 Z6P       0.200500
     12 O2           7.2170    16.2310   -20.6110 o          1 Z6P      -0.621100
     13 N3           5.2490    16.8670   -19.6860 ns         1 Z6P      -0.477900
     14 C21          5.6610    18.1870   -19.2910 cx         1 Z6P       0.044700
     15 C22          4.5900    19.1450   -18.8310 cx         1 Z6P      -0.132400
     16 C23          5.2530    19.3400   -20.1730 cx         1 Z6P      -0.132400
     17 C18          5.4210    14.6420   -20.6830 ca         1 Z6P      -0.287600
     18 C19          4.0210    14.4550   -20.6420 ca         1 Z6P       0.000000
     19 C17          6.1930    13.5490   -21.0940 ca         1 Z6P       0.657900
     20 N2           7.5190    13.5290   -21.1780 nv         1 Z6P      -1.055900
     21 N1           5.7260    12.3670   -21.4610 nb         1 Z6P      -0.763000
     22 C16          4.3870    12.1970   -21.4180 ca         1 Z6P       0.424900
     23 C            1.3820    12.4640   -22.1670 ca         1 Z6P      -0.077000
     24 N           -2.2020    12.2300   -21.0420 ns         1 Z6P      -0.129000
     25 O           -2.8360    11.6730   -23.1960 o          1 Z6P      -0.575100
     26 O1          -4.8680    12.4950   -20.3160 oh         1 Z6P      -0.668000
     27 C11         -5.7280     9.4660   -22.0100 ca         1 Z6P      -0.150500
     28 C15         -4.3030     9.5840   -20.0450 ca         1 Z6P      -0.150500
     29 C14         -4.5790     8.2340   -19.7710 ca         1 Z6P       0.200500
     30 F           -4.0240     7.6420   -18.6910 f          1 Z6P      -0.168500
     31 C13         -5.4250     7.4960   -20.6090 ca         1 Z6P      -0.189000
     32 F1          -6.8130     7.4110   -22.5400 f          1 Z6P      -0.168500
     33 H1          -0.7950    13.0930   -19.0170 ha         1 Z6P       0.110000
     34 H2          -0.4240    11.8480   -23.1400 ha         1 Z6P       0.148000
     35 H3           1.8770    14.7280   -18.4840 hc         1 Z6P       0.042700
     36 H4           1.1610    13.3340   -17.6670 hc         1 Z6P       0.042700
     37 H5           2.7840    13.2090   -18.3380 hc         1 Z6P       0.042700
     38 H6          -5.2290    11.9990   -22.3100 h1         1 Z6P       0.075700
     39 H7           4.3120    16.5590   -19.4650 hn         1 Z6P       0.319500
     40 H8           6.6350    18.2310   -18.7990 h1         1 Z6P       0.086700
     41 H9           4.8450    19.8390   -18.0340 hc         1 Z6P       0.077700
     42 H10          3.5590    18.7990   -18.8210 hc         1 Z6P       0.077700
     43 H11          5.9530    20.1650   -20.2780 hc         1 Z6P       0.077700
     44 H12          4.6710    19.1200   -21.0640 hc         1 Z6P       0.077700
     45 H13          3.3440    15.2600   -20.3670 ha         1 Z6P       0.117000
     46 H14          7.8890    12.8210   -21.7970 hn         1 Z6P       0.500500
     47 H15          7.9630    14.4440   -21.1970 hn         1 Z6P       0.500500
     48 H16          4.0200    11.2170   -21.7190 h4         1 Z6P       0.022100
     49 H17          1.9800    12.2860   -23.0580 ha         1 Z6P       0.118000
     50 H18         -2.6210    12.3740   -20.1310 hn         1 Z6P       0.173000
     51 H19         -5.7970    12.3010   -20.0530 ho         1 Z6P       0.468000
     52 H20         -6.1830     9.9240   -22.8850 ha         1 Z6P       0.144500
     53 H21         -3.6460    10.1350   -19.3770 ha         1 Z6P       0.144500
     54 H22         -5.6350     6.4530   -20.3940 ha         1 Z6P       0.154000
     55 C20          6.0580    15.9550   -20.3280 c          1 Z6P       0.634700
@<TRIPOS>BOND
     1     1     2 ar  
     2     1     7 1   
     3     1    23 ar  
     4     2     3 ar  
     5     2     6 1   
     6     3     4 ar  
     7     3    33 1   
     8     4     5 ar  
     9     4    24 1   
    10     5    23 ar  
    11     5    34 1   
    12     6    35 1   
    13     6    36 1   
    14     6    37 1   
    15     7    18 ar  
    16     7    22 ar  
    17     8     9 1   
    18     8    24 1   
    19     8    25 2   
    20     9    10 1   
    21     9    26 1   
    22     9    38 1   
    23    10    27 ar  
    24    10    28 ar  
    25    11    27 ar  
    26    11    31 ar  
    27    11    32 1   
    28    12    55 2   
    29    13    14 1   
    30    13    39 1   
    31    13    55 1   
    32    14    15 1   
    33    14    16 1   
    34    14    40 1   
    35    15    16 1   
    36    15    41 1   
    37    15    42 1   
    38    16    43 1   
    39    16    44 1   
    40    17    18 ar  
    41    17    19 ar  
    42    17    55 1   
    43    18    45 1   
    44    19    20 1   
    45    19    21 ar  
    46    20    46 1   
    47    20    47 1   
    48    21    22 ar  
    49    22    48 1   
    50    23    49 1   
    51    24    50 1   
    52    26    51 1   
    53    27    52 1   
    54    28    29 ar  
    55    28    53 1   
    56    29    30 1   
    57    29    31 ar  
    58    31    54 1   
@<TRIPOS>SUBSTRUCTURE
     1 Z6P         1 TEMP              0 ****  ****    0 ROOT
