@<TRIPOS>MOLECULE
Z6V
   57    60     1     0     0
SMALL
abcg2


@<TRIPOS>ATOM
      1 C10         29.1070   -12.7430   -17.6130 ca         1 Z6V       0.177100
      2 C13         32.6300   -12.8490   -18.8590 cc         1 Z6V      -0.282500
      3 C20         29.8320   -10.6350   -18.4100 ca         1 Z6V       0.374900
      4 C21         28.8230   -11.4040   -17.8500 ca         1 Z6V      -0.253000
      5 C22         25.9760   -13.3170   -17.8110 ca         1 Z6V      -0.077000
      6 C24         22.8290   -11.2920   -14.7710 cc         1 Z6V       0.179600
      7 C26         20.5740   -11.4820   -14.7710 cd         1 Z6V       0.740800
      8 C28         19.1870   -10.1950   -13.1910 c3         1 Z6V       0.245500
      9 C02         21.8490   -12.8590   -16.3080 c          1 Z6V       0.591200
     10 C03         23.0150   -12.2240   -15.7590 cd         1 Z6V      -0.411000
     11 C04         24.3710   -12.5920   -16.1930 ca         1 Z6V       0.462800
     12 C06         26.5880   -12.7890   -15.5520 ca         1 Z6V       0.370300
     13 C07         27.6100   -12.6590   -14.4660 c3         1 Z6V      -0.145400
     14 C08         26.9400   -13.2270   -16.8260 ca         1 Z6V       0.021100
     15 C11         30.3630   -13.2380   -17.9350 ca         1 Z6V      -0.196000
     16 C12         31.3020   -12.3750   -18.4910 ca         1 Z6V       0.483500
     17 C14         33.5900   -12.1550   -19.5730 cd         1 Z6V      -0.114000
     18 C18         33.2430   -14.0900   -18.5970 cc         1 Z6V       0.263900
     19 C23         24.6690   -12.9920   -17.4970 ca         1 Z6V      -0.139000
     20 C29         17.8050    -9.5730   -13.3140 c3         1 Z6V      -0.111600
     21 C30         19.3750   -10.8980   -11.8520 c3         1 Z6V      -0.111600
     22 N05         25.3270   -12.4950   -15.2650 nb         1 Z6V      -0.698000
     23 N15         34.6490   -12.9660   -19.6930 na         1 Z6V       0.129800
     24 N17         34.4580   -14.1440   -19.1040 nd         1 Z6V      -0.531800
     25 N19         31.0350   -11.0860   -18.7270 nb         1 Z6V      -0.709000
     26 N25         21.6530   -10.9110   -14.2730 nc         1 Z6V      -0.727300
     27 N27         19.3770   -11.1190   -14.3050 nu         1 Z6V      -0.897400
     28 N31         20.6280   -12.4220   -15.7590 n          1 Z6V      -0.343300
     29 O01         21.8430   -13.7270   -17.1680 o          1 Z6V      -0.554000
     30 O09         28.2310   -13.6230   -17.0800 os         1 Z6V      -0.240200
     31 H1          29.6440    -9.5860   -18.6100 h4         1 Z6V       0.015100
     32 H2          27.8640   -10.9590   -17.6230 ha         1 Z6V       0.135000
     33 H3          26.2410   -13.6400   -18.8100 ha         1 Z6V       0.133000
     34 H4          23.6960   -10.8030   -14.3410 h4         1 Z6V       0.226000
     35 H5          19.9360    -9.4100   -13.2910 h1         1 Z6V       0.088700
     36 H6          27.1380   -12.3060   -13.5520 hc         1 Z6V       0.056033
     37 H7          28.0930   -13.6150   -14.2560 hc         1 Z6V       0.056033
     38 H8          28.3990   -11.9540   -14.7360 hc         1 Z6V       0.056033
     39 H9          30.5920   -14.2820   -17.7650 ha         1 Z6V       0.137000
     40 H10         33.5790   -11.1640   -19.9970 h4         1 Z6V       0.168000
     41 H11         36.0280   -13.3960   -21.2000 h1         1 Z6V       0.056700
     42 H12         35.8610   -11.6850   -20.7770 h1         1 Z6V       0.056700
     43 H13         36.7270   -12.7810   -19.6900 h1         1 Z6V       0.056700
     44 H14         32.8470   -14.9360   -18.0540 h4         1 Z6V       0.039100
     45 H15         23.9050   -13.0430   -18.2560 ha         1 Z6V       0.144000
     46 H16         17.6520    -8.8460   -12.5180 hc         1 Z6V       0.046367
     47 H17         17.6830    -9.0600   -14.2680 hc         1 Z6V       0.046367
     48 H18         17.0210   -10.3290   -13.2270 hc         1 Z6V       0.046367
     49 H19         19.2580   -10.1880   -11.0330 hc         1 Z6V       0.046367
     50 H20         18.6340   -11.6880   -11.7230 hc         1 Z6V       0.046367
     51 H21         20.3680   -11.3400   -11.7750 hc         1 Z6V       0.046367
     52 H22         18.7410   -12.2360   -16.6670 h1         1 Z6V       0.059367
     53 H23         19.6360   -13.7020   -17.0610 h1         1 Z6V       0.059367
     54 H24         18.8740   -13.5570   -15.4790 h1         1 Z6V       0.059367
     55 H25         18.5560   -11.6180   -14.6070 hn         1 Z6V       0.496000
     56 C16         35.8900   -12.6950   -20.3790 c3         1 Z6V       0.072900
     57 C32         19.3950   -13.0090   -16.2650 c3         1 Z6V       0.054300
@<TRIPOS>BOND
     1     1     4 ar  
     2     1    15 ar  
     3     1    30 1   
     4     2    16 1   
     5     2    17 2   
     6     2    18 1   
     7     3     4 ar  
     8     3    25 ar  
     9     3    31 1   
    10     4    32 1   
    11     5    14 ar  
    12     5    19 ar  
    13     5    33 1   
    14     6    10 2   
    15     6    26 1   
    16     6    34 1   
    17     7    26 2   
    18     7    27 1   
    19     7    28 1   
    20     8    20 1   
    21     8    21 1   
    22     8    27 1   
    23     8    35 1   
    24     9    10 1   
    25     9    28 1   
    26     9    29 2   
    27    10    11 1   
    28    11    19 ar  
    29    11    22 ar  
    30    12    13 1   
    31    12    14 ar  
    32    12    22 ar  
    33    13    36 1   
    34    13    37 1   
    35    13    38 1   
    36    14    30 1   
    37    15    16 ar  
    38    15    39 1   
    39    16    25 ar  
    40    17    23 1   
    41    17    40 1   
    42    18    24 2   
    43    18    44 1   
    44    19    45 1   
    45    20    46 1   
    46    20    47 1   
    47    20    48 1   
    48    21    49 1   
    49    21    50 1   
    50    21    51 1   
    51    23    24 1   
    52    23    56 1   
    53    27    55 1   
    54    28    57 1   
    55    41    56 1   
    56    42    56 1   
    57    43    56 1   
    58    52    57 1   
    59    53    57 1   
    60    54    57 1   
@<TRIPOS>SUBSTRUCTURE
     1 Z6V         1 TEMP              0 ****  ****    0 ROOT
