@<TRIPOS>MOLECULE
Z6V
   57    60     1     0     0
SMALL
No Charge or Current Charge


@<TRIPOS>ATOM
      1 C10         29.5030   -12.2840   -17.0900 ca         1 Z6V       0.177100
      2 C13         32.5330   -13.0310   -19.1910 cc         1 Z6V      -0.282500
      3 C20         30.1650   -10.3700   -18.3930 ca         1 Z6V       0.374900
      4 C21         29.2970   -10.9500   -17.4600 ca         1 Z6V      -0.253000
      5 C22         26.5380   -12.5190   -17.1900 ca         1 Z6V      -0.077000
      6 C24         22.8550   -11.2450   -14.2870 cc         1 Z6V       0.179600
      7 C26         20.6330   -11.5290   -14.7910 cd         1 Z6V       0.740800
      8 C28         18.8170   -10.5560   -13.2950 c3         1 Z6V       0.245500
      9 C02         22.1820   -12.5600   -16.2780 c          1 Z6V       0.591200
     10 C03         23.2110   -11.9500   -15.4180 cd         1 Z6V      -0.411000
     11 C04         24.6380   -12.1730   -15.7000 ca         1 Z6V       0.462800
     12 C06         26.7430   -12.5530   -14.7750 ca         1 Z6V       0.370300
     13 C07         27.5590   -12.7010   -13.5020 c3         1 Z6V      -0.145400
     14 C08         27.3480   -12.6550   -16.0490 ca         1 Z6V       0.021100
     15 C11         30.5780   -12.9780   -17.6510 ca         1 Z6V      -0.196000
     16 C12         31.4040   -12.3260   -18.5820 ca         1 Z6V       0.483500
     17 C14         33.3730   -12.4530   -20.1010 cd         1 Z6V      -0.114000
     18 C18         32.9810   -14.3450   -19.0060 cc         1 Z6V       0.263900
     19 C23         25.1670   -12.2740   -17.0060 ca         1 Z6V      -0.139000
     20 C29         17.5240    -9.8270   -13.7030 c3         1 Z6V      -0.111600
     21 C30         18.5870   -11.5350   -12.1280 c3         1 Z6V      -0.111600
     22 N05         25.4210   -12.3150   -14.6050 nb         1 Z6V      -0.698000
     23 N15         34.2890   -13.4630   -20.4140 na         1 Z6V       0.129800
     24 N17         34.0420   -14.6470   -19.7270 nd         1 Z6V      -0.531800
     25 N19         31.1970   -11.0400   -18.9470 nb         1 Z6V      -0.709000
     26 N25         21.5330   -11.0240   -13.9760 nc         1 Z6V      -0.727300
     27 N27         19.3350   -11.2940   -14.4560 nu         1 Z6V      -0.897400
     28 N31         20.8640   -12.2790   -15.9200 n          1 Z6V      -0.343300
     29 O01         22.4540   -13.2790   -17.2280 o          1 Z6V      -0.554000
     30 O09         28.6990   -12.9120   -16.1660 os         1 Z6V      -0.240200
     31 H1          30.0330    -9.3350   -18.7050 h4         1 Z6V       0.015100
     32 H2          28.4900   -10.3620   -17.0350 ha         1 Z6V       0.135000
     33 H3          26.9560   -12.6020   -18.1900 ha         1 Z6V       0.133000
     34 H4          23.5810   -10.8130   -13.5970 h4         1 Z6V       0.226000
     35 H5          19.5370    -9.7920   -12.9660 h1         1 Z6V       0.088700
     36 H6          26.9440   -12.5810   -12.6020 hc         1 Z6V       0.056033
     37 H7          28.0280   -13.6900   -13.4560 hc         1 Z6V       0.056033
     38 H8          28.3560   -11.9490   -13.4640 hc         1 Z6V       0.056033
     39 H9          30.7620   -14.0080   -17.3690 ha         1 Z6V       0.137000
     40 H10         33.4010   -11.4590   -20.5350 h4         1 Z6V       0.168000
     41 H11         35.2880   -14.0950   -22.1580 h1         1 Z6V       0.056700
     42 H12         35.4420   -12.3520   -21.7880 h1         1 Z6V       0.056700
     43 H13         36.3530   -13.5520   -20.8250 h1         1 Z6V       0.056700
     44 H14         32.5620   -15.1030   -18.3580 h4         1 Z6V       0.039100
     45 H15         24.5310   -12.1370   -17.8740 ha         1 Z6V       0.144000
     46 H16         17.1290    -9.2500   -12.8590 hc         1 Z6V       0.046367
     47 H17         17.7190    -9.1290   -14.5270 hc         1 Z6V       0.046367
     48 H18         16.7530   -10.5370   -14.0230 hc         1 Z6V       0.046367
     49 H19         18.2040   -11.0020   -11.2500 hc         1 Z6V       0.046367
     50 H20         17.8620   -12.3110   -12.4030 hc         1 Z6V       0.046367
     51 H21         19.5260   -12.0250   -11.8440 hc         1 Z6V       0.046367
     52 H22         19.1010   -11.9970   -17.0880 h1         1 Z6V       0.059367
     53 H23         20.1200   -13.3280   -17.6570 h1         1 Z6V       0.059367
     54 H24         19.1640   -13.5380   -16.1750 h1         1 Z6V       0.059367
     55 H25         18.6610   -11.7240   -15.0760 hn         1 Z6V       0.496000
     56 C16         35.4130   -13.3580   -21.3550 c3         1 Z6V       0.072900
     57 C32         19.7510   -12.8180   -16.7580 c3         1 Z6V       0.054300
@<TRIPOS>BOND
     1     1     4 ar  
     2     1    15 ar  
     3     1    30 1   
     4     2    16 1   
     5     2    17 2   
     6     2    18 1   
     7     3     4 ar  
     8     3    25 ar  
     9     3    31 1   
    10     4    32 1   
    11     5    14 ar  
    12     5    19 ar  
    13     5    33 1   
    14     6    10 2   
    15     6    26 1   
    16     6    34 1   
    17     7    26 2   
    18     7    27 1   
    19     7    28 1   
    20     8    20 1   
    21     8    21 1   
    22     8    27 1   
    23     8    35 1   
    24     9    10 1   
    25     9    28 1   
    26     9    29 2   
    27    10    11 1   
    28    11    19 ar  
    29    11    22 ar  
    30    12    13 1   
    31    12    14 ar  
    32    12    22 ar  
    33    13    36 1   
    34    13    37 1   
    35    13    38 1   
    36    14    30 1   
    37    15    16 ar  
    38    15    39 1   
    39    16    25 ar  
    40    17    23 1   
    41    17    40 1   
    42    18    24 2   
    43    18    44 1   
    44    19    45 1   
    45    20    46 1   
    46    20    47 1   
    47    20    48 1   
    48    21    49 1   
    49    21    50 1   
    50    21    51 1   
    51    23    24 1   
    52    23    56 1   
    53    27    55 1   
    54    28    57 1   
    55    41    56 1   
    56    42    56 1   
    57    43    56 1   
    58    52    57 1   
    59    53    57 1   
    60    54    57 1   
@<TRIPOS>SUBSTRUCTURE
     1 Z6V         1 TEMP              0 ****  ****    0 ROOT
