@<TRIPOS>MOLECULE
Z6W
   48    48     1     0     0
SMALL
abcg2


@<TRIPOS>ATOM
      1 O2         -37.6960   112.6160    35.8290 oh         1 Z6W      -0.684000
      2 C1         -36.5050   110.5900    35.6710 c3         1 Z6W       0.163600
      3 C2         -36.9590   111.7220    36.5780 c5         1 Z6W       0.412000
      4 C3         -35.7920   112.3890    37.3550 c5         1 Z6W       0.116300
      5 C4         -36.3170   112.4510    38.7830 c5         1 Z6W       0.090300
      6 C5         -37.1450   111.1740    38.8490 c5         1 Z6W       0.138300
      7 O1         -35.6150   111.1100    34.7180 oh         1 Z6W      -0.703000
      8 O3         -35.4870   113.6300    36.7840 oh         1 Z6W      -0.703000
      9 O4         -35.2600   112.5200    39.7010 oh         1 Z6W      -0.709000
     10 O5         -37.7910   111.1500    37.5810 os         1 Z6W      -0.495000
     11 C7         -38.9870   109.8130    39.9500 c3         1 Z6W       0.190300
     12 C8         -39.7480   109.5860    41.2500 c3         1 Z6W      -0.070400
     13 C9         -40.7940   110.6370    41.6000 c3         1 Z6W      -0.071400
     14 C10        -41.4880   110.3340    42.9220 c3         1 Z6W      -0.076400
     15 C11        -42.5730   111.3410    43.2830 c3         1 Z6W      -0.074400
     16 C12        -43.2460   111.0410    44.6170 c3         1 Z6W      -0.076400
     17 C13        -44.3490   112.0300    44.9750 c3         1 Z6W      -0.074400
     18 C14        -45.0070   111.7200    46.3120 c3         1 Z6W      -0.088100
     19 O7         -39.9160   109.7740    38.8840 oh         1 Z6W      -0.665000
     20 C6         -38.1710   111.1080    39.9600 c3         1 Z6W      -0.115400
     21 HO2        -37.5510   113.5140    36.1510 ho         1 Z6W       0.531000
     22 H11        -36.0310   109.8220    36.2960 h1         1 Z6W       0.036700
     23 H12        -37.3880   110.1290    35.2070 h1         1 Z6W       0.036700
     24 H3         -34.9220   111.7180    37.3430 h1         1 Z6W       0.069700
     25 H4         -36.9910   113.3160    38.8810 h1         1 Z6W       0.054700
     26 H5         -36.4630   110.3140    38.9420 h1         1 Z6W       0.054700
     27 HO1        -35.2510   110.3750    34.2160 ho         1 Z6W       0.506000
     28 HO3        -34.8580   114.0850    37.3540 ho         1 Z6W       0.524000
     29 HO4        -35.5970   112.8510    40.5390 ho         1 Z6W       0.515000
     30 H7         -38.2670   108.9830    39.8530 h1         1 Z6W       0.023700
     31 H71        -40.2300   108.6030    41.2030 hc         1 Z6W       0.044200
     32 H72        -39.0120   109.5170    42.0570 hc         1 Z6W       0.044200
     33 H81        -40.3320   111.6280    41.6600 hc         1 Z6W       0.044700
     34 H82        -41.5420   110.6970    40.8030 hc         1 Z6W       0.044700
     35 H91        -41.9270   109.3300    42.8810 hc         1 Z6W       0.035200
     36 H92        -40.7410   110.3020    43.7230 hc         1 Z6W       0.035200
     37 H101       -42.1420   112.3480    43.3120 hc         1 Z6W       0.037700
     38 H102       -43.3290   111.3580    42.4910 hc         1 Z6W       0.037700
     39 H111       -43.6630   110.0280    44.5940 hc         1 Z6W       0.036700
     40 H112       -42.4910   111.0380    45.4110 hc         1 Z6W       0.036700
     41 H121       -43.9350   113.0430    44.9940 hc         1 Z6W       0.036700
     42 H122       -45.1060   112.0280    44.1850 hc         1 Z6W       0.036700
     43 H131       -45.8020   112.4300    46.5450 hc         1 Z6W       0.031033
     44 H132       -45.4470   110.7210    46.3120 hc         1 Z6W       0.031033
     45 H133       -44.2820   111.7580    47.1270 hc         1 Z6W       0.031033
     46 HO7        -39.4540   110.0370    38.0790 ho         1 Z6W       0.466000
     47 H61        -37.6300   111.1700    40.9090 hc         1 Z6W       0.058700
     48 H62        -38.8280   111.9820    39.9090 hc         1 Z6W       0.058700
@<TRIPOS>BOND
     1     1     3 1   
     2     1    21 1   
     3     2     3 1   
     4     2     7 1   
     5     2    22 1   
     6     2    23 1   
     7     3     4 1   
     8     3    10 1   
     9     4     5 1   
    10     4     8 1   
    11     4    24 1   
    12     5     6 1   
    13     5     9 1   
    14     5    25 1   
    15     6    10 1   
    16     6    20 1   
    17     6    26 1   
    18     7    27 1   
    19     8    28 1   
    20     9    29 1   
    21    11    12 1   
    22    11    19 1   
    23    11    20 1   
    24    11    30 1   
    25    12    13 1   
    26    12    31 1   
    27    12    32 1   
    28    13    14 1   
    29    13    33 1   
    30    13    34 1   
    31    14    15 1   
    32    14    35 1   
    33    14    36 1   
    34    15    16 1   
    35    15    37 1   
    36    15    38 1   
    37    16    17 1   
    38    16    39 1   
    39    16    40 1   
    40    17    18 1   
    41    17    41 1   
    42    17    42 1   
    43    18    43 1   
    44    18    44 1   
    45    18    45 1   
    46    19    46 1   
    47    20    47 1   
    48    20    48 1   
@<TRIPOS>SUBSTRUCTURE
     1 Z6W         1 TEMP              0 ****  ****    0 ROOT
