@<TRIPOS>MOLECULE
Z6W
   48    48     1     0     0
SMALL
No Charge or Current Charge


@<TRIPOS>ATOM
      1 O2         -38.2770   112.5770    37.2870 oh         1 Z6W      -0.684000
      2 C1         -37.4430   111.2400    35.4880 c3         1 Z6W       0.163600
      3 C2         -37.2250   111.6760    36.9740 c5         1 Z6W       0.412000
      4 C3         -35.7950   112.2300    37.3240 c5         1 Z6W       0.116300
      5 C4         -35.9010   112.2130    38.8750 c5         1 Z6W       0.090300
      6 C5         -36.6280   110.8360    39.0970 c5         1 Z6W       0.138300
      7 O1         -37.7750   112.3780    34.6530 oh         1 Z6W      -0.703000
      8 O3         -35.4540   113.5330    36.8060 oh         1 Z6W      -0.703000
      9 O4         -34.6120   112.3130    39.5040 oh         1 Z6W      -0.709000
     10 O5         -37.3170   110.5350    37.8480 os         1 Z6W      -0.495000
     11 C7         -38.3560   109.4800    40.4910 c3         1 Z6W       0.190300
     12 C8         -39.2680   109.4320    41.7460 c3         1 Z6W      -0.070400
     13 C9         -40.4400   110.4480    41.7710 c3         1 Z6W      -0.071400
     14 C10        -41.3330   110.3040    43.0230 c3         1 Z6W      -0.076400
     15 C11        -42.4990   111.3160    43.0540 c3         1 Z6W      -0.074400
     16 C12        -43.3910   111.1720    44.3070 c3         1 Z6W      -0.076400
     17 C13        -44.5570   112.1840    44.3380 c3         1 Z6W      -0.074400
     18 C14        -45.4480   112.0400    45.5870 c3         1 Z6W      -0.088100
     19 O7         -39.1140   109.1780    39.3220 oh         1 Z6W      -0.665000
     20 C6         -37.6350   110.8310    40.2750 c3         1 Z6W      -0.115400
     21 HO2        -38.3920   113.0300    36.4170 ho         1 Z6W       0.531000
     22 H11        -36.5280   110.7520    35.1270 h1         1 Z6W       0.036700
     23 H12        -38.2500   110.4960    35.4530 h1         1 Z6W       0.036700
     24 H3         -35.0420   111.4980    36.9970 h1         1 Z6W       0.069700
     25 H4         -36.5450   113.0370    39.2160 h1         1 Z6W       0.054700
     26 H5         -35.8900   110.0400    39.2670 h1         1 Z6W       0.054700
     27 HO1        -37.7910   112.0570    33.7200 ho         1 Z6W       0.506000
     28 HO3        -34.7140   113.8590    37.3720 ho         1 Z6W       0.524000
     29 HO4        -34.7600   112.3670    40.4790 ho         1 Z6W       0.515000
     30 H7         -37.5810   108.7130    40.6230 h1         1 Z6W       0.023700
     31 H71        -39.6770   108.4180    41.8370 hc         1 Z6W       0.044200
     32 H72        -38.6450   109.5900    42.6350 hc         1 Z6W       0.044200
     33 H81        -40.0430   111.4690    41.7390 hc         1 Z6W       0.044700
     34 H82        -41.0590   110.3150    40.8750 hc         1 Z6W       0.044700
     35 H91        -41.7390   109.2850    43.0610 hc         1 Z6W       0.035200
     36 H92        -40.7170   110.4370    43.9220 hc         1 Z6W       0.035200
     37 H101       -42.0930   112.3350    43.0170 hc         1 Z6W       0.037700
     38 H102       -43.1150   111.1840    42.1560 hc         1 Z6W       0.037700
     39 H111       -43.7980   110.1530    44.3440 hc         1 Z6W       0.036700
     40 H112       -42.7750   111.3040    45.2050 hc         1 Z6W       0.036700
     41 H121       -44.1550   113.2040    44.3030 hc         1 Z6W       0.036700
     42 H122       -45.1770   112.0530    43.4420 hc         1 Z6W       0.036700
     43 H131       -46.2590   112.7780    45.5650 hc         1 Z6W       0.031033
     44 H132       -45.8950   111.0400    45.6320 hc         1 Z6W       0.031033
     45 H133       -44.8630   112.2010    46.5010 hc         1 Z6W       0.031033
     46 HO7        -38.6090   109.6190    38.5910 ho         1 Z6W       0.466000
     47 H61        -37.1040   111.0900    41.1990 hc         1 Z6W       0.058700
     48 H62        -38.3780   111.6220    40.1170 hc         1 Z6W       0.058700
@<TRIPOS>BOND
     1     1     3 1   
     2     1    21 1   
     3     2     3 1   
     4     2     7 1   
     5     2    22 1   
     6     2    23 1   
     7     3     4 1   
     8     3    10 1   
     9     4     5 1   
    10     4     8 1   
    11     4    24 1   
    12     5     6 1   
    13     5     9 1   
    14     5    25 1   
    15     6    10 1   
    16     6    20 1   
    17     6    26 1   
    18     7    27 1   
    19     8    28 1   
    20     9    29 1   
    21    11    12 1   
    22    11    19 1   
    23    11    20 1   
    24    11    30 1   
    25    12    13 1   
    26    12    31 1   
    27    12    32 1   
    28    13    14 1   
    29    13    33 1   
    30    13    34 1   
    31    14    15 1   
    32    14    35 1   
    33    14    36 1   
    34    15    16 1   
    35    15    37 1   
    36    15    38 1   
    37    16    17 1   
    38    16    39 1   
    39    16    40 1   
    40    17    18 1   
    41    17    41 1   
    42    17    42 1   
    43    18    43 1   
    44    18    44 1   
    45    18    45 1   
    46    19    46 1   
    47    20    47 1   
    48    20    48 1   
@<TRIPOS>SUBSTRUCTURE
     1 Z6W         1 TEMP              0 ****  ****    0 ROOT
