@<TRIPOS>MOLECULE
Z6X
   42    41     1     0     0
SMALL
No Charge or Current Charge


@<TRIPOS>ATOM
      1 C1           9.6500    -0.2850    -0.0020 c3         1 Z6X      -0.088100
      2 C2           8.3310     0.4240    -0.3660 c3         1 Z6X      -0.075400
      3 C3           7.0800    -0.3330     0.1300 c3         1 Z6X      -0.075400
      4 C4           5.7590     0.3780    -0.2350 c3         1 Z6X      -0.075400
      5 C5           4.5080    -0.3800     0.2600 c3         1 Z6X      -0.074400
      6 C6           3.1860     0.3310    -0.1040 c3         1 Z6X      -0.075400
      7 C7           1.9350    -0.4270     0.3910 c3         1 Z6X      -0.074400
      8 C8           0.6140     0.2840     0.0270 c3         1 Z6X      -0.075400
      9 C9          -0.6370    -0.4740     0.5230 c3         1 Z6X      -0.076400
     10 C10         -1.9590     0.2380     0.1580 c3         1 Z6X      -0.064400
     11 C11         -3.2100    -0.5220     0.6560 c3         1 Z6X      -0.202400
     12 C12         -4.5010     0.2170     0.2650 c          1 Z6X       0.580100
     13 O1          -4.9510     1.1160     0.9640 o          1 Z6X      -0.511100
     14 C13         -5.1720    -0.1910    -1.0360 c3         1 Z6X      -0.306400
     15 C14         -6.2590    -1.1600    -0.6280 c          1 Z6X       0.730000
     16 O2          -7.3620    -0.7100    -0.3650 o          1 Z6X      -0.722000
     17 O3          -5.9610    -2.3380    -0.5200 o          1 Z6X      -0.722000
     18 H11          9.7500    -0.3850     1.0860 hc         1 Z6X       0.029367
     19 H12          9.6880    -1.2860    -0.4470 hc         1 Z6X       0.029367
     20 H13         10.5080     0.2890    -0.3730 hc         1 Z6X       0.029367
     21 H21          8.3390     1.4340     0.0640 hc         1 Z6X       0.036200
     22 H22          8.2790     0.5410    -1.4550 hc         1 Z6X       0.036200
     23 H31          7.0770    -1.3430    -0.3000 hc         1 Z6X       0.035700
     24 H32          7.1380    -0.4490     1.2190 hc         1 Z6X       0.035700
     25 H41          5.7620     1.3870     0.1950 hc         1 Z6X       0.036700
     26 H42          5.7010     0.4940    -1.3250 hc         1 Z6X       0.036700
     27 H51          4.5040    -1.3900    -0.1700 hc         1 Z6X       0.035700
     28 H52          4.5650    -0.4960     1.3500 hc         1 Z6X       0.035700
     29 H61          3.1900     1.3400     0.3260 hc         1 Z6X       0.036700
     30 H62          3.1290     0.4470    -1.1940 hc         1 Z6X       0.036700
     31 H71          1.9320    -1.4360    -0.0390 hc         1 Z6X       0.034700
     32 H72          1.9930    -0.5430     1.4810 hc         1 Z6X       0.034700
     33 H81          0.6170     1.2940     0.4570 hc         1 Z6X       0.037200
     34 H82          0.5560     0.4010    -1.0630 hc         1 Z6X       0.037200
     35 H91         -0.6410    -1.4830     0.0920 hc         1 Z6X       0.030700
     36 H92         -0.5790    -0.5900     1.6120 hc         1 Z6X       0.030700
     37 H101        -1.9550     1.2470     0.5880 hc         1 Z6X       0.046200
     38 H102        -2.0160     0.3550    -0.9310 hc         1 Z6X       0.046200
     39 H111        -3.1970    -1.5140     0.1900 hc         1 Z6X       0.044700
     40 H112        -3.1590    -0.6120     1.7480 hc         1 Z6X       0.044700
     41 H131        -5.6060     0.7170    -1.4700 hc         1 Z6X       0.036200
     42 H132        -4.4200    -0.7140    -1.6380 hc         1 Z6X       0.036200
@<TRIPOS>BOND
     1     1     2 1   
     2     1    18 1   
     3     1    19 1   
     4     1    20 1   
     5     2     3 1   
     6     2    21 1   
     7     2    22 1   
     8     3     4 1   
     9     3    23 1   
    10     3    24 1   
    11     4     5 1   
    12     4    25 1   
    13     4    26 1   
    14     5     6 1   
    15     5    27 1   
    16     5    28 1   
    17     6     7 1   
    18     6    29 1   
    19     6    30 1   
    20     7     8 1   
    21     7    31 1   
    22     7    32 1   
    23     8     9 1   
    24     8    33 1   
    25     8    34 1   
    26     9    10 1   
    27     9    35 1   
    28     9    36 1   
    29    10    11 1   
    30    10    37 1   
    31    10    38 1   
    32    11    12 1   
    33    11    39 1   
    34    11    40 1   
    35    12    13 2   
    36    12    14 1   
    37    14    15 1   
    38    14    41 1   
    39    14    42 1   
    40    15    16 1   
    41    15    17 1   
@<TRIPOS>SUBSTRUCTURE
     1 Z6X         1 TEMP              0 ****  ****    0 ROOT
