@<TRIPOS>MOLECULE
Z6X
   42    41     1     0     0
SMALL
abcg2


@<TRIPOS>ATOM
      1 C1           9.6620    -0.1990    -0.0270 c3         1 Z6X      -0.088100
      2 C2           8.3660     0.6000    -0.0180 c3         1 Z6X      -0.075400
      3 C3           7.1270    -0.2880    -0.0120 c3         1 Z6X      -0.075400
      4 C4           5.8210     0.4960    -0.0070 c3         1 Z6X      -0.075400
      5 C5           4.5850    -0.3950     0.0010 c3         1 Z6X      -0.074400
      6 C6           3.2780     0.3890     0.0050 c3         1 Z6X      -0.075400
      7 C7           2.0410    -0.5010     0.0130 c3         1 Z6X      -0.074400
      8 C8           0.7370     0.2870     0.0130 c3         1 Z6X      -0.075400
      9 C9          -0.5040    -0.5970     0.0190 c3         1 Z6X      -0.076400
     10 C10         -1.8000     0.2050     0.0120 c3         1 Z6X      -0.064400
     11 C11         -3.0300    -0.6880     0.0190 c3         1 Z6X      -0.202400
     12 C12         -4.3560     0.0480     0.0060 c          1 Z6X       0.580100
     13 O1          -4.3950     1.2560    -0.0180 o          1 Z6X      -0.511100
     14 C13         -5.5620    -0.8590     0.0260 c3         1 Z6X      -0.306400
     15 C14         -7.0040    -0.3050    -0.0020 c          1 Z6X       0.730000
     16 O2          -7.1910     0.9200    -0.0530 o          1 Z6X      -0.722000
     17 O3          -7.8800    -1.1940     0.0290 o          1 Z6X      -0.722000
     18 H11          9.7290    -0.8490     0.8480 hc         1 Z6X       0.029367
     19 H12          9.7250    -0.8340    -0.9130 hc         1 Z6X       0.029367
     20 H13         10.5380     0.4500    -0.0230 hc         1 Z6X       0.029367
     21 H21          8.3450     1.2560     0.8580 hc         1 Z6X       0.036200
     22 H22          8.3340     1.2600    -0.8910 hc         1 Z6X       0.036200
     23 H31          7.1510    -0.9470    -0.8870 hc         1 Z6X       0.035700
     24 H32          7.1590    -0.9470     0.8630 hc         1 Z6X       0.035700
     25 H41          5.7970     1.1570     0.8680 hc         1 Z6X       0.036700
     26 H42          5.7880     1.1540    -0.8830 hc         1 Z6X       0.036700
     27 H51          4.6090    -1.0560    -0.8720 hc         1 Z6X       0.035700
     28 H52          4.6170    -1.0510     0.8790 hc         1 Z6X       0.035700
     29 H61          3.2540     1.0500     0.8790 hc         1 Z6X       0.036700
     30 H62          3.2460     1.0460    -0.8710 hc         1 Z6X       0.036700
     31 H71          2.0650    -1.1640    -0.8590 hc         1 Z6X       0.034700
     32 H72          2.0700    -1.1550     0.8920 hc         1 Z6X       0.034700
     33 H81          0.7130     0.9500     0.8850 hc         1 Z6X       0.037200
     34 H82          0.7090     0.9430    -0.8650 hc         1 Z6X       0.037200
     35 H91         -0.4810    -1.2620    -0.8520 hc         1 Z6X       0.030700
     36 H92         -0.4810    -1.2490     0.8990 hc         1 Z6X       0.030700
     37 H101        -1.8190     0.8690     0.8820 hc         1 Z6X       0.046200
     38 H102        -1.8180     0.8540    -0.8680 hc         1 Z6X       0.046200
     39 H111        -3.0140    -1.3670    -0.8410 hc         1 Z6X       0.044700
     40 H112        -3.0180    -1.3480     0.8940 hc         1 Z6X       0.044700
     41 H131        -5.4470    -1.5580    -0.8120 hc         1 Z6X       0.036200
     42 H132        -5.4580    -1.5060     0.9060 hc         1 Z6X       0.036200
@<TRIPOS>BOND
     1     1     2 1   
     2     1    18 1   
     3     1    19 1   
     4     1    20 1   
     5     2     3 1   
     6     2    21 1   
     7     2    22 1   
     8     3     4 1   
     9     3    23 1   
    10     3    24 1   
    11     4     5 1   
    12     4    25 1   
    13     4    26 1   
    14     5     6 1   
    15     5    27 1   
    16     5    28 1   
    17     6     7 1   
    18     6    29 1   
    19     6    30 1   
    20     7     8 1   
    21     7    31 1   
    22     7    32 1   
    23     8     9 1   
    24     8    33 1   
    25     8    34 1   
    26     9    10 1   
    27     9    35 1   
    28     9    36 1   
    29    10    11 1   
    30    10    37 1   
    31    10    38 1   
    32    11    12 1   
    33    11    39 1   
    34    11    40 1   
    35    12    13 2   
    36    12    14 1   
    37    14    15 1   
    38    14    41 1   
    39    14    42 1   
    40    15    16 1   
    41    15    17 1   
@<TRIPOS>SUBSTRUCTURE
     1 Z6X         1 TEMP              0 ****  ****    0 ROOT
