@<TRIPOS>MOLECULE
Z70
   24    24     1     0     0
SMALL
bcc


@<TRIPOS>ATOM
      1 CA         -23.6750    12.6430   -39.3970 c3         1 Z70       0.017500
      2 C          -23.0620    11.7220   -40.4830 c          1 Z70       0.929600
      3 C3         -23.2010    16.2410   -40.7910 cc         1 Z70      -0.167900
      4 C4         -23.8540    18.3290   -40.4720 cc         1 Z70       0.579400
      5 C5         -23.2650    16.9250   -41.9640 cd         1 Z70       0.287200
      6 C6         -24.0440    14.0320   -39.9170 c3         1 Z70      -0.028400
      7 C7         -22.8580    14.8320   -40.4590 c3         1 Z70      -0.011100
      8 N          -22.7920    12.7540   -38.2450 n8         1 Z70      -0.897800
      9 N2         -23.5810    17.1660   -39.8370 na         1 Z70      -0.331900
     10 N3         -23.6770    18.2260   -41.7630 nd         1 Z70      -0.733000
     11 N4         -24.1940    19.4760   -39.7880 nv         1 Z70      -0.907500
     12 OXT        -22.1910    10.9120   -40.1050 o          1 Z70      -0.834300
     13 O          -23.5320    11.8280   -41.6330 o          1 Z70      -0.834300
     14 H1         -24.6290    12.1560   -39.1280 h1         1 Z70      -0.001300
     15 H5         -23.0440    16.5490   -42.9520 h4         1 Z70       0.035100
     16 H6         -24.8000    13.9340   -40.6970 hc         1 Z70       0.015700
     17 H6A        -24.5170    14.5900   -39.1020 hc         1 Z70       0.015700
     18 H7         -22.4810    14.3550   -41.3650 hc         1 Z70       0.076200
     19 H7A        -22.0430    14.8050   -39.7300 hc         1 Z70       0.076200
     20 H          -23.3310    12.9700   -37.4160 hn         1 Z70       0.327300
     21 H2         -22.3570    11.8540   -38.0920 hn         1 Z70       0.327300
     22 HN4        -24.5870    20.1790   -40.3960 hn         1 Z70       0.382300
     23 HN4A       -24.7930    19.3260   -38.9890 hn         1 Z70       0.382300
     24 HN2        -23.6320    17.0050   -38.8430 hn         1 Z70       0.296700
@<TRIPOS>BOND
     1     1     2 1   
     2     1     6 1   
     3     1     8 1   
     4     1    14 1   
     5     2    12 1   
     6     2    13 1   
     7     3     5 2   
     8     3     7 1   
     9     3     9 1   
    10     4     9 1   
    11     4    10 2   
    12     4    11 1   
    13     5    10 1   
    14     5    15 1   
    15     6     7 1   
    16     6    16 1   
    17     6    17 1   
    18     7    18 1   
    19     7    19 1   
    20     8    20 1   
    21     8    21 1   
    22     9    24 1   
    23    11    22 1   
    24    11    23 1   
@<TRIPOS>SUBSTRUCTURE
     1 Z70         1 TEMP              0 ****  ****    0 ROOT
