@<TRIPOS>MOLECULE
Z70
   24    24     1     0     0
SMALL
No Charge or Current Charge


@<TRIPOS>ATOM
      1 CA         -23.5970    12.5520   -39.4450 c3         1 Z70       0.017500
      2 C          -23.1300    11.6660   -40.6980 c          1 Z70       0.929600
      3 C3         -23.2250    16.2940   -40.6710 cc         1 Z70      -0.167900
      4 C4         -23.9070    18.3740   -40.5410 cc         1 Z70       0.579400
      5 C5         -23.3330    16.8670   -41.9210 cd         1 Z70       0.287200
      6 C6         -23.9770    14.0160   -39.8240 c3         1 Z70      -0.028400
      7 C7         -22.7920    14.9040   -40.2820 c3         1 Z70      -0.011100
      8 N          -22.7080    12.5570   -38.2220 n8         1 Z70      -0.897800
      9 N2         -23.5990    17.2860   -39.7900 na         1 Z70      -0.331900
     10 N3         -23.7650    18.1800   -41.8200 nd         1 Z70      -0.733000
     11 N4         -24.3170    19.5280   -40.0110 nv         1 Z70      -0.907500
     12 OXT        -22.4790    10.6460   -40.4810 o          1 Z70      -0.834300
     13 O          -23.4050    12.0250   -41.8400 o          1 Z70      -0.834300
     14 H1         -24.5290    12.0770   -39.1090 h1         1 Z70      -0.001300
     15 H5         -23.1240    16.4090   -42.8800 h4         1 Z70       0.035100
     16 H6         -24.7390    13.9990   -40.6130 hc         1 Z70       0.015700
     17 H6A        -24.4550    14.4910   -38.9580 hc         1 Z70       0.015700
     18 H7         -22.2850    14.4300   -41.1310 hc         1 Z70       0.076200
     19 H7A        -22.0490    14.9650   -39.4780 hc         1 Z70       0.076200
     20 H          -23.2130    12.9750   -37.4340 hn         1 Z70       0.327300
     21 H2         -22.5340    11.5870   -37.9360 hn         1 Z70       0.327300
     22 HN4        -24.7070    20.2130   -40.6460 hn         1 Z70       0.382300
     23 HN4A       -24.6330    19.5350   -39.0500 hn         1 Z70       0.382300
     24 HN2        -23.6380    17.2340   -38.7830 hn         1 Z70       0.296700
@<TRIPOS>BOND
     1     1     2 1   
     2     1     6 1   
     3     1     8 1   
     4     1    14 1   
     5     2    12 1   
     6     2    13 1   
     7     3     5 2   
     8     3     7 1   
     9     3     9 1   
    10     4     9 1   
    11     4    10 2   
    12     4    11 1   
    13     5    10 1   
    14     5    15 1   
    15     6     7 1   
    16     6    16 1   
    17     6    17 1   
    18     7    18 1   
    19     7    19 1   
    20     8    20 1   
    21     8    21 1   
    22     9    24 1   
    23    11    22 1   
    24    11    23 1   
@<TRIPOS>SUBSTRUCTURE
     1 Z70         1 TEMP              0 ****  ****    0 ROOT
