@<TRIPOS>MOLECULE
Z71
   41    43     1     0     0
SMALL
abcg2


@<TRIPOS>ATOM
      1 C1          -1.5620    -0.5460    -0.0200 cc         1 Z71      -0.461600
      2 C2          -0.5270    -1.4590    -0.2070 cd         1 Z71       0.693900
      3 N3           0.7310    -0.9450    -0.1200 nd         1 Z71      -0.787000
      4 C4           0.7090     0.3270     0.1300 cc         1 Z71       0.776300
      5 S5          -0.8680     1.0340     0.2910 ss         1 Z71      -0.103400
      6 C6          -2.9650    -0.8570    -0.0950 c          1 Z71       0.688700
      7 N7          -0.6510    -2.7690    -0.4380 nv         1 Z71      -1.038900
      8 N8           1.7910     1.1210     0.2740 nu         1 Z71      -0.918900
      9 O9          -3.3560    -2.0030    -0.3040 o          1 Z71      -0.622100
     10 C10          5.8750     0.3420     0.0720 ca         1 Z71      -0.307500
     11 C11          4.9910    -0.7010    -0.1440 ca         1 Z71       0.023500
     12 C12          3.6230    -0.4840    -0.0850 ca         1 Z71      -0.174500
     13 C13          3.1380     0.7940     0.1940 ca         1 Z71       0.355000
     14 C14          4.0450     1.8410     0.4120 ca         1 Z71      -0.174500
     15 C15          5.4020     1.6200     0.3540 ca         1 Z71       0.023500
     16 O17          7.8290    -1.3770    -0.1060 o          1 Z71      -0.544500
     17 N18          8.0440     0.9030    -1.3250 n8         1 Z71      -1.005100
     18 O19          8.2520     0.7480     1.1400 o          1 Z71      -0.544500
     19 N20         -3.8340     0.1920     0.0770 ns         1 Z71      -0.141000
     20 C21         -8.0320     0.3880     0.0830 ca         1 Z71      -0.234000
     21 C22         -7.3790    -0.8220    -0.0340 ca         1 Z71       0.228500
     22 C23         -6.0050    -0.9650    -0.0480 ca         1 Z71      -0.224500
     23 C24         -5.2220     0.1860     0.0650 ca         1 Z71       0.047000
     24 C25         -5.8450     1.4340     0.1860 ca         1 Z71      -0.224500
     25 C26         -7.2200     1.5010     0.1920 ca         1 Z71       0.228500
     26 F28         -7.7980     2.7020     0.3070 f          1 Z71      -0.172000
     27 HN7         -1.5610    -3.1560    -0.6190 hn         1 Z71       0.516000
     28 HN7A         0.1630    -3.2960    -0.7010 hn         1 Z71       0.516000
     29 HN8          1.6040     2.0920     0.4730 hn         1 Z71       0.513000
     30 H11          5.3510    -1.6970    -0.3620 ha         1 Z71       0.139500
     31 H12          2.9480    -1.3060    -0.2540 ha         1 Z71       0.137000
     32 H14          3.6780     2.8360     0.6340 ha         1 Z71       0.137000
     33 H15          6.0820     2.4430     0.5260 ha         1 Z71       0.139500
     34 HN18         9.0410     1.0930    -1.3430 hn         1 Z71       0.473500
     35 HN1A         7.7590     0.4390    -2.1820 hn         1 Z71       0.473500
     36 HN20        -3.4370     1.1110     0.2020 hn         1 Z71       0.152000
     37 H21         -9.1110     0.4630     0.0890 ha         1 Z71       0.152000
     38 H23         -5.5710    -1.9460    -0.1450 ha         1 Z71       0.150500
     39 H25         -5.2610     2.3410     0.2750 ha         1 Z71       0.150500
     40 S16          7.6140     0.0590     0.0270 sy         1 Z71       1.132600
     41 F27         -8.1220    -1.9300    -0.1430 f          1 Z71      -0.172000
@<TRIPOS>BOND
     1     1     2 2   
     2     1     5 1   
     3     1     6 1   
     4     2     3 1   
     5     2     7 1   
     6     3     4 2   
     7     4     5 1   
     8     4     8 1   
     9     6     9 2   
    10     6    19 1   
    11     7    27 1   
    12     7    28 1   
    13     8    13 1   
    14     8    29 1   
    15    10    11 ar  
    16    10    15 ar  
    17    10    40 1   
    18    11    12 ar  
    19    11    30 1   
    20    12    13 ar  
    21    12    31 1   
    22    13    14 ar  
    23    14    15 ar  
    24    14    32 1   
    25    15    33 1   
    26    16    40 2   
    27    17    34 1   
    28    17    35 1   
    29    17    40 1   
    30    18    40 2   
    31    19    23 1   
    32    19    36 1   
    33    20    21 ar  
    34    20    25 ar  
    35    20    37 1   
    36    21    22 ar  
    37    21    41 1   
    38    22    23 ar  
    39    22    38 1   
    40    23    24 ar  
    41    24    25 ar  
    42    24    39 1   
    43    25    26 1   
@<TRIPOS>SUBSTRUCTURE
     1 Z71         1 TEMP              0 ****  ****    0 ROOT
