@<TRIPOS>MOLECULE
Z71
   41    43     1     0     0
SMALL
No Charge or Current Charge


@<TRIPOS>ATOM
      1 C1          -1.5350    -0.6130     0.0850 cc         1 Z71      -0.461600
      2 C2          -0.4790    -1.4670     0.1290 cd         1 Z71       0.693900
      3 N3           0.7650    -0.9360     0.0750 nd         1 Z71      -0.787000
      4 C4           0.6540     0.3680     0.0010 cc         1 Z71       0.776300
      5 S5          -0.9620     1.0340     0.0160 ss         1 Z71      -0.103400
      6 C6          -2.9440    -1.0290     0.0730 c          1 Z71       0.688700
      7 N7          -0.4970    -2.7820     0.2020 nv         1 Z71      -1.038900
      8 N8           1.7690     1.1450    -0.0360 nu         1 Z71      -0.918900
      9 O9          -3.2930    -2.2030     0.0810 o          1 Z71      -0.622100
     10 C10          5.9030     0.3500     0.0400 ca         1 Z71      -0.307500
     11 C11          5.0500    -0.4680    -0.7270 ca         1 Z71       0.023500
     12 C12          3.6700    -0.2080    -0.7510 ca         1 Z71      -0.174500
     13 C13          3.1300     0.8550    -0.0090 ca         1 Z71       0.355000
     14 C14          3.9840     1.6750     0.7410 ca         1 Z71      -0.174500
     15 C15          5.3670     1.4260     0.7750 ca         1 Z71       0.023500
     16 O17          7.9460    -1.3070    -0.4320 o          1 Z71      -0.544500
     17 N18          8.2080     1.0260    -1.0940 n8         1 Z71      -1.005100
     18 O19          8.2510     0.5480     1.3200 o          1 Z71      -0.544500
     19 N20         -3.8140     0.0490     0.0420 ns         1 Z71      -0.141000
     20 C21         -8.0400     0.4720    -0.0250 ca         1 Z71      -0.234000
     21 C22         -7.4810    -0.8090     0.0310 ca         1 Z71       0.228500
     22 C23         -6.0890    -0.9820     0.0540 ca         1 Z71      -0.224500
     23 C24         -5.2310     0.1380     0.0210 ca         1 Z71       0.047000
     24 C25         -5.8020     1.4230    -0.0350 ca         1 Z71      -0.224500
     25 C26         -7.1950     1.5860    -0.0580 ca         1 Z71       0.228500
     26 F28         -7.7240     2.8270    -0.1120 f          1 Z71      -0.172000
     27 HN7         -1.3910    -3.2150    -0.0100 hn         1 Z71       0.516000
     28 HN7A         0.3350    -3.2510    -0.1290 hn         1 Z71       0.516000
     29 HN8          1.5400     2.1110     0.1720 hn         1 Z71       0.513000
     30 H11          5.4460    -1.3020    -1.3060 ha         1 Z71       0.139500
     31 H12          3.0210    -0.8340    -1.3560 ha         1 Z71       0.137000
     32 H14          3.5790     2.5070     1.3100 ha         1 Z71       0.137000
     33 H15          6.0140     2.0710     1.3680 ha         1 Z71       0.139500
     34 HN18         8.7720     0.3820    -1.6450 hn         1 Z71       0.473500
     35 HN1A         7.3750     1.1650    -1.6600 hn         1 Z71       0.473500
     36 HN20        -3.3480     0.9460     0.0330 hn         1 Z71       0.152000
     37 H21         -9.1180     0.6000    -0.0430 ha         1 Z71       0.152000
     38 H23         -5.7020    -1.9940     0.1000 ha         1 Z71       0.150500
     39 H25         -5.1670     2.3050    -0.0610 ha         1 Z71       0.150500
     40 S16          7.6660     0.0310     0.0830 sy         1 Z71       1.132600
     41 F27         -8.2900    -1.8900     0.0640 f          1 Z71      -0.172000
@<TRIPOS>BOND
     1     1     2 2   
     2     1     5 1   
     3     1     6 1   
     4     2     3 1   
     5     2     7 1   
     6     3     4 2   
     7     4     5 1   
     8     4     8 1   
     9     6     9 2   
    10     6    19 1   
    11     7    27 1   
    12     7    28 1   
    13     8    13 1   
    14     8    29 1   
    15    10    11 ar  
    16    10    15 ar  
    17    10    40 1   
    18    11    12 ar  
    19    11    30 1   
    20    12    13 ar  
    21    12    31 1   
    22    13    14 ar  
    23    14    15 ar  
    24    14    32 1   
    25    15    33 1   
    26    16    40 2   
    27    17    34 1   
    28    17    35 1   
    29    17    40 1   
    30    18    40 2   
    31    19    23 1   
    32    19    36 1   
    33    20    21 ar  
    34    20    25 ar  
    35    20    37 1   
    36    21    22 ar  
    37    21    41 1   
    38    22    23 ar  
    39    22    38 1   
    40    23    24 ar  
    41    24    25 ar  
    42    24    39 1   
    43    25    26 1   
@<TRIPOS>SUBSTRUCTURE
     1 Z71         1 TEMP              0 ****  ****    0 ROOT
