@<TRIPOS>MOLECULE
Z72
   46    49     1     0     0
SMALL
No Charge or Current Charge


@<TRIPOS>ATOM
      1 C1         -48.9410   104.7650     2.2840 ca         1 Z72       0.187100
      2 C2         -49.1420   104.8390     3.6850 ca         1 Z72       0.055100
      3 O3         -48.8700   106.0080     4.3840 os         1 Z72      -0.340100
      4 C4         -47.4260   106.1920     4.4920 c5         1 Z72       0.167300
      5 C5         -46.8480   105.3080     5.6330 c5         1 Z72      -0.089900
      6 C6         -47.3920   105.9750     6.9340 c5         1 Z72      -0.073400
      7 C7         -47.6740   107.4640     6.5480 c5         1 Z72      -0.073400
      8 C8         -47.1660   107.6000     5.0820 c5         1 Z72      -0.089900
      9 C9         -49.6900   103.7310     4.3710 ca         1 Z72       0.172100
     10 CA         -48.2550   105.8960     0.2680 c          1 Z72       0.686300
     11 OA         -48.4730   105.8660     1.6110 os         1 Z72      -0.334200
     12 OB         -47.8460   106.8990    -0.2960 o          1 Z72      -0.493000
     13 O10        -49.9280   103.8410     5.7300 os         1 Z72      -0.318100
     14 C11        -50.4540   102.7560     6.5140 c3         1 Z72       0.143900
     15 C12        -49.9700   102.5450     3.6610 ca         1 Z72      -0.216000
     16 C13        -49.7330   102.4700     2.2800 ca         1 Z72      -0.028000
     17 C14        -49.2320   103.5840     1.5720 ca         1 Z72      -0.193800
     18 C15        -48.9980   103.5220     0.1310 cc         1 Z72       0.292800
     19 N16        -49.3240   102.4210    -0.6140 nu         1 Z72      -0.832000
     20 C17        -48.5510   104.6640    -0.4620 cd         1 Z72      -0.423200
     21 C18        -48.7380   101.8330    -1.7550 ca         1 Z72       0.327000
     22 C19        -49.5700   101.2620    -2.7420 ca         1 Z72       0.039500
     23 Cl20       -51.3350   101.2720    -2.5800 cl         1 Z72      -0.165500
     24 C21        -48.9810   100.6820    -3.8790 ca         1 Z72       0.366400
     25 N22        -47.6430   100.6290    -4.0790 nb         1 Z72      -0.651000
     26 C23        -46.8470   101.1620    -3.1210 ca         1 Z72       0.366400
     27 C24        -47.3360   101.7680    -1.9490 ca         1 Z72       0.039500
     28 Cl25       -46.1680   102.3680    -0.7560 cl         1 Z72      -0.165500
     29 H4         -46.9240   106.0440     3.5270 h1         1 Z72       0.066700
     30 H5         -47.1320   104.2540     5.5500 hc         1 Z72       0.052450
     31 H5A        -45.7520   105.3350     5.6140 hc         1 Z72       0.052450
     32 H6         -48.3110   105.4870     7.2760 hc         1 Z72       0.043200
     33 H6A        -46.6700   105.8950     7.7540 hc         1 Z72       0.043200
     34 H7         -48.7470   107.6820     6.6120 hc         1 Z72       0.043200
     35 H7A        -47.1690   108.1680     7.2190 hc         1 Z72       0.043200
     36 H8         -46.0980   107.8440     5.0540 hc         1 Z72       0.052450
     37 H8A        -47.6900   108.3880     4.5300 hc         1 Z72       0.052450
     38 H11        -50.5580   103.0610     7.5620 h1         1 Z72       0.047033
     39 H11A       -51.4440   102.4540     6.1480 h1         1 Z72       0.047033
     40 H11B       -49.7830   101.8880     6.4780 h1         1 Z72       0.047033
     41 H12        -50.3730   101.6700     4.1610 ha         1 Z72       0.126000
     42 H13        -49.9500   101.5360     1.7670 ha         1 Z72       0.114000
     43 HN16       -50.2410   102.0400    -0.3760 hn         1 Z72       0.505000
     44 H17        -48.3880   104.7280    -1.5280 ha         1 Z72       0.218000
     45 H21        -49.6030   100.2410    -4.6570 h4         1 Z72       0.044100
     46 H23        -45.7740   101.0940    -3.2970 h4         1 Z72       0.044100
@<TRIPOS>BOND
     1     1     2 ar  
     2     1    11 1   
     3     1    17 ar  
     4     2     3 1   
     5     2     9 ar  
     6     3     4 1   
     7     4     5 1   
     8     4     8 1   
     9     4    29 1   
    10     5     6 1   
    11     5    30 1   
    12     5    31 1   
    13     6     7 1   
    14     6    32 1   
    15     6    33 1   
    16     7     8 1   
    17     7    34 1   
    18     7    35 1   
    19     8    36 1   
    20     8    37 1   
    21     9    13 1   
    22     9    15 ar  
    23    10    11 1   
    24    10    12 2   
    25    10    20 1   
    26    13    14 1   
    27    14    38 1   
    28    14    39 1   
    29    14    40 1   
    30    15    16 ar  
    31    15    41 1   
    32    16    17 ar  
    33    16    42 1   
    34    17    18 1   
    35    18    19 1   
    36    18    20 2   
    37    19    21 1   
    38    19    43 1   
    39    20    44 1   
    40    21    22 ar  
    41    21    27 ar  
    42    22    23 1   
    43    22    24 ar  
    44    24    25 ar  
    45    24    45 1   
    46    25    26 ar  
    47    26    27 ar  
    48    26    46 1   
    49    27    28 1   
@<TRIPOS>SUBSTRUCTURE
     1 Z72         1 TEMP              0 ****  ****    0 ROOT
