@<TRIPOS>MOLECULE
Z72
   46    49     1     0     0
SMALL
abcg2


@<TRIPOS>ATOM
      1 C1         -48.7330   104.5560     2.2700 ca         1 Z72       0.187100
      2 C2         -49.0440   104.7860     3.6100 ca         1 Z72       0.055100
      3 O3         -48.8410   106.0030     4.1830 os         1 Z72      -0.340100
      4 C4         -47.4640   106.3590     4.5250 c5         1 Z72       0.167300
      5 C5         -46.8900   105.4380     5.6000 c5         1 Z72      -0.089900
      6 C6         -47.3890   106.0040     6.9530 c5         1 Z72      -0.073400
      7 C7         -48.0190   107.3830     6.6300 c5         1 Z72      -0.073400
      8 C8         -47.5420   107.7140     5.2080 c5         1 Z72      -0.089900
      9 C9         -49.6500   103.7570     4.3480 ca         1 Z72       0.172100
     10 CA         -47.7810   105.4870     0.2700 c          1 Z72       0.686300
     11 OA         -48.1480   105.5890     1.6020 os         1 Z72      -0.334200
     12 OB         -47.2480   106.4690    -0.2150 o          1 Z72      -0.493000
     13 O10        -49.9400   104.0450     5.6320 os         1 Z72      -0.318100
     14 C11        -50.5140   103.0220     6.4500 c3         1 Z72       0.143900
     15 C12        -49.9110   102.5220     3.7410 ca         1 Z72      -0.216000
     16 C13        -49.5890   102.3170     2.4140 ca         1 Z72      -0.028000
     17 C14        -49.0070   103.3310     1.6440 ca         1 Z72      -0.193800
     18 C15        -48.6690   103.2120     0.2420 cc         1 Z72       0.292800
     19 N16        -48.9690   102.0320    -0.3930 nu         1 Z72      -0.832000
     20 C17        -48.0780   104.2650    -0.3990 cd         1 Z72      -0.423200
     21 C18        -48.6680   101.7410    -1.7230 ca         1 Z72       0.327000
     22 C19        -49.6800   101.4640    -2.6490 ca         1 Z72       0.039500
     23 CL20       -51.3450   101.5270    -2.1580 cl         1 Z72      -0.165500
     24 C21        -49.3660   101.1420    -3.9610 ca         1 Z72       0.366400
     25 N22        -48.1100   101.0940    -4.4020 nb         1 Z72      -0.651000
     26 C23        -47.1270   101.3370    -3.5390 ca         1 Z72       0.366400
     27 C24        -47.3560   101.6420    -2.2030 ca         1 Z72       0.039500
     28 CL25       -45.9990   101.8370    -1.1430 cl         1 Z72      -0.165500
     29 H4         -46.8780   106.3630     3.6060 h1         1 Z72       0.066700
     30 H5         -47.1700   104.3970     5.4380 hc         1 Z72       0.052450
     31 H5A        -45.8010   105.4880     5.5370 hc         1 Z72       0.052450
     32 H6         -48.1200   105.3390     7.4120 hc         1 Z72       0.043200
     33 H6A        -46.5580   106.1050     7.6530 hc         1 Z72       0.043200
     34 H7         -49.1080   107.3110     6.6450 hc         1 Z72       0.043200
     35 H7A        -47.7330   108.1510     7.3490 hc         1 Z72       0.043200
     36 H8         -46.5380   108.1440     5.2270 hc         1 Z72       0.052450
     37 H8A        -48.1950   108.4060     4.6740 hc         1 Z72       0.052450
     38 H11        -50.6470   103.4730     7.4290 h1         1 Z72       0.047033
     39 H11A       -51.4810   102.7030     6.0550 h1         1 Z72       0.047033
     40 H11B       -49.8440   102.1640     6.5250 h1         1 Z72       0.047033
     41 H12        -50.3580   101.7190     4.3070 ha         1 Z72       0.126000
     42 H13        -49.7870   101.3450     1.9850 ha         1 Z72       0.114000
     43 HN16       -49.7470   101.5120    -0.0150 hn         1 Z72       0.505000
     44 H17        -47.8310   104.2280    -1.4480 ha         1 Z72       0.218000
     45 H21        -50.1580   100.9320    -4.6700 h4         1 Z72       0.044100
     46 H23        -46.1090   101.2750    -3.9060 h4         1 Z72       0.044100
@<TRIPOS>BOND
     1     1     2 ar  
     2     1    11 1   
     3     1    17 ar  
     4     2     3 1   
     5     2     9 ar  
     6     3     4 1   
     7     4     5 1   
     8     4     8 1   
     9     4    29 1   
    10     5     6 1   
    11     5    30 1   
    12     5    31 1   
    13     6     7 1   
    14     6    32 1   
    15     6    33 1   
    16     7     8 1   
    17     7    34 1   
    18     7    35 1   
    19     8    36 1   
    20     8    37 1   
    21     9    13 1   
    22     9    15 ar  
    23    10    11 1   
    24    10    12 2   
    25    10    20 1   
    26    13    14 1   
    27    14    38 1   
    28    14    39 1   
    29    14    40 1   
    30    15    16 ar  
    31    15    41 1   
    32    16    17 ar  
    33    16    42 1   
    34    17    18 1   
    35    18    19 1   
    36    18    20 2   
    37    19    21 1   
    38    19    43 1   
    39    20    44 1   
    40    21    22 ar  
    41    21    27 ar  
    42    22    23 1   
    43    22    24 ar  
    44    24    25 ar  
    45    24    45 1   
    46    25    26 ar  
    47    26    27 ar  
    48    26    46 1   
    49    27    28 1   
@<TRIPOS>SUBSTRUCTURE
     1 Z72         1 TEMP              0 ****  ****    0 ROOT
