@<TRIPOS>MOLECULE
Z73
   38    40     1     0     0
SMALL
No Charge or Current Charge


@<TRIPOS>ATOM
      1 C1          -2.5020     1.4080     0.1230 cc         1 Z73       0.430300
      2 C2          -2.0830     0.0430    -0.0620 cc         1 Z73      -0.224000
      3 N3          -1.6380     2.4240     0.2050 nd         1 Z73      -0.665000
      4 N4          -0.7710    -0.2910    -0.1650 na         1 Z73      -0.115300
      5 C5          -0.2690     2.0260     0.0940 ca         1 Z73       0.165000
      6 C6           0.2220     0.6810    -0.0910 ca         1 Z73       0.478500
      7 C7           2.4390     1.4180    -0.0950 ca         1 Z73       0.615300
      8 N8           1.5500     0.4120    -0.1800 nb         1 Z73      -0.780000
      9 C9           2.0490     2.7470     0.0780 ca         1 Z73      -0.191000
     10 C10          0.6850     3.0560     0.1740 ca         1 Z73      -0.006000
     11 C11         -0.6520    -1.6550    -0.3400 cc         1 Z73       0.406800
     12 N12         -1.8750    -2.1830    -0.3440 nd         1 Z73      -0.582300
     13 C13         -2.7760    -1.1410    -0.1720 cd         1 Z73       0.082400
     14 C14         -3.9630     1.7420     0.2330 c3         1 Z73      -0.147400
     15 C15         -4.2600    -1.4120    -0.1330 c3         1 Z73      -0.017900
     16 C16          0.6030    -2.4830    -0.5060 c3         1 Z73      -0.078700
     17 C17          1.2910    -2.8350     0.8340 c3         1 Z73      -0.073400
     18 C18          2.5500    -3.7050     0.6560 c3         1 Z73      -0.089100
     19 O19          3.7830     1.1490    -0.1810 os         1 Z73      -0.452300
     20 C20          4.2640    -0.2050    -0.2990 c3         1 Z73       0.155900
     21 H9           2.8020     3.5250     0.1400 ha         1 Z73       0.146000
     22 H10          0.3660     4.0870     0.3120 ha         1 Z73       0.142000
     23 H14         -4.4160     1.2360     1.0920 hc         1 Z73       0.058700
     24 H14A        -4.1200     2.8190     0.3700 hc         1 Z73       0.058700
     25 H14B        -4.5000     1.4490    -0.6750 hc         1 Z73       0.058700
     26 H15         -4.7810    -0.8870    -0.9410 hc         1 Z73       0.049033
     27 H15A        -4.4730    -2.4810    -0.2510 hc         1 Z73       0.049033
     28 H15B        -4.6950    -1.0990     0.8230 hc         1 Z73       0.049033
     29 H16          0.3420    -3.4170    -1.0170 hc         1 Z73       0.067200
     30 H16A         1.3090    -1.9760    -1.1720 hc         1 Z73       0.067200
     31 H17          1.5650    -1.9140     1.3630 hc         1 Z73       0.048700
     32 H18          2.2970    -4.6610     0.1820 hc         1 Z73       0.031700
     33 H18A         3.2910    -3.1940     0.0290 hc         1 Z73       0.031700
     34 H20          3.9630    -0.8030     0.5700 h1         1 Z73       0.050033
     35 H20A         3.8710    -0.6840    -1.2050 h1         1 Z73       0.050033
     36 H20B         5.3600    -0.2170    -0.3570 h1         1 Z73       0.050033
     37 H171         0.5780    -3.3670     1.4770 hc         1 Z73       0.048700
     38 H181         3.0100    -3.9160     1.6290 hc         1 Z73       0.031700
@<TRIPOS>BOND
     1     1     2 1   
     2     1     3 2   
     3     1    14 1   
     4     2     4 1   
     5     2    13 2   
     6     3     5 1   
     7     4     6 1   
     8     4    11 1   
     9     5     6 ar  
    10     5    10 ar  
    11     6     8 ar  
    12     7     8 ar  
    13     7     9 ar  
    14     7    19 1   
    15     9    10 ar  
    16     9    21 1   
    17    10    22 1   
    18    11    12 2   
    19    11    16 1   
    20    12    13 1   
    21    13    15 1   
    22    14    23 1   
    23    14    24 1   
    24    14    25 1   
    25    15    26 1   
    26    15    27 1   
    27    15    28 1   
    28    16    17 1   
    29    16    29 1   
    30    16    30 1   
    31    17    18 1   
    32    17    31 1   
    33    17    37 1   
    34    18    32 1   
    35    18    33 1   
    36    18    38 1   
    37    19    20 1   
    38    20    34 1   
    39    20    35 1   
    40    20    36 1   
@<TRIPOS>SUBSTRUCTURE
     1 Z73         1 TEMP              0 ****  ****    0 ROOT
