@<TRIPOS>MOLECULE
Z73
   38    40     1     0     0
SMALL
abcg2


@<TRIPOS>ATOM
      1 C1          -2.4510     1.3920     0.1480 cc         1 Z73       0.430300
      2 C2          -2.0640     0.0300    -0.0570 cc         1 Z73      -0.224000
      3 N3          -1.5790     2.3420     0.2290 nd         1 Z73      -0.665000
      4 N4          -0.7080    -0.2810    -0.1620 na         1 Z73      -0.115300
      5 C5          -0.2440     2.0250     0.1170 ca         1 Z73       0.165000
      6 C6           0.2410     0.7280    -0.0730 ca         1 Z73       0.478500
      7 C7           2.4080     1.3870    -0.0980 ca         1 Z73       0.615300
      8 N8           1.5230     0.4190    -0.1750 nb         1 Z73      -0.780000
      9 C9           2.0570     2.7340     0.0870 ca         1 Z73      -0.191000
     10 C10          0.7240     3.0360     0.1950 ca         1 Z73      -0.006000
     11 C11         -0.6110    -1.6210    -0.3650 cc         1 Z73       0.406800
     12 N12         -1.8140    -2.1550    -0.3910 nd         1 Z73      -0.582300
     13 C13         -2.7250    -1.1700    -0.2060 cd         1 Z73       0.082400
     14 C14         -3.9000     1.7300     0.2760 c3         1 Z73      -0.147400
     15 C15         -4.1870    -1.4650    -0.1960 c3         1 Z73      -0.017900
     16 C16          0.6370    -2.4220    -0.4920 c3         1 Z73      -0.078700
     17 C17          1.2860    -2.7430     0.8570 c3         1 Z73      -0.073400
     18 C18          2.4920    -3.6570     0.6980 c3         1 Z73      -0.089100
     19 O19          3.7030     1.1040    -0.1980 os         1 Z73      -0.452300
     20 C20          4.0850    -0.2560    -0.3520 c3         1 Z73       0.155900
     21 H9           2.8200     3.4980     0.1450 ha         1 Z73       0.146000
     22 H10          0.3980     4.0570     0.3420 ha         1 Z73       0.142000
     23 H14         -4.3480     1.2130     1.1270 hc         1 Z73       0.058700
     24 H14A        -4.0220     2.8010     0.4170 hc         1 Z73       0.058700
     25 H14B        -4.4560     1.4290    -0.6120 hc         1 Z73       0.058700
     26 H15         -4.7120    -0.9620    -1.0080 hc         1 Z73       0.049033
     27 H15A        -4.3410    -2.5360    -0.3140 hc         1 Z73       0.049033
     28 H15B        -4.6630    -1.1590     0.7370 hc         1 Z73       0.049033
     29 H16          0.3510    -3.3540    -0.9830 hc         1 Z73       0.067200
     30 H16A         1.3570    -1.9230    -1.1390 hc         1 Z73       0.067200
     31 H17          1.5870    -1.8140     1.3460 hc         1 Z73       0.048700
     32 H18          2.2120    -4.6040     0.2320 hc         1 Z73       0.031700
     33 H18A         3.2590    -3.1970     0.0720 hc         1 Z73       0.031700
     34 H20          3.7800    -0.8570     0.5060 h1         1 Z73       0.050033
     35 H20A         3.6630    -0.6950    -1.2570 h1         1 Z73       0.050033
     36 H20B         5.1690    -0.2560    -0.4240 h1         1 Z73       0.050033
     37 H171         0.5460    -3.2170     1.5070 hc         1 Z73       0.048700
     38 H181         2.9450    -3.8850     1.6630 hc         1 Z73       0.031700
@<TRIPOS>BOND
     1     1     2 1   
     2     1     3 2   
     3     1    14 1   
     4     2     4 1   
     5     2    13 2   
     6     3     5 1   
     7     4     6 1   
     8     4    11 1   
     9     5     6 ar  
    10     5    10 ar  
    11     6     8 ar  
    12     7     8 ar  
    13     7     9 ar  
    14     7    19 1   
    15     9    10 ar  
    16     9    21 1   
    17    10    22 1   
    18    11    12 2   
    19    11    16 1   
    20    12    13 1   
    21    13    15 1   
    22    14    23 1   
    23    14    24 1   
    24    14    25 1   
    25    15    26 1   
    26    15    27 1   
    27    15    28 1   
    28    16    17 1   
    29    16    29 1   
    30    16    30 1   
    31    17    18 1   
    32    17    31 1   
    33    17    37 1   
    34    18    32 1   
    35    18    33 1   
    36    18    38 1   
    37    19    20 1   
    38    20    34 1   
    39    20    35 1   
    40    20    36 1   
@<TRIPOS>SUBSTRUCTURE
     1 Z73         1 TEMP              0 ****  ****    0 ROOT
