@<TRIPOS>MOLECULE
Z74
   88    91     1     0     0
SMALL
No Charge or Current Charge


@<TRIPOS>ATOM
      1 C1           4.9760     0.3300     1.2760 ca         1 Z74      -0.067000
      2 F1           0.0970    -5.2090    -3.1500 f          1 Z74      -0.168500
      3 N1           0.0780    -0.1610    -0.1560 ns         1 Z74      -0.498900
      4 O1          -8.4010     1.3810    -0.7310 o          1 Z74      -0.531000
      5 C2           4.9990    -0.0850    -0.0730 ca         1 Z74      -0.141600
      6 N2           7.4480     0.4050    -0.4290 n          1 Z74      -0.403800
      7 O2          -6.7400    -0.5440    -0.3740 o          1 Z74      -0.531000
      8 C3           3.7760    -0.3290    -0.7320 ca         1 Z74      -0.032000
      9 N3          -5.9440     1.7560    -1.2180 n3         1 Z74      -0.748500
     10 O3           6.3740    -1.2440    -1.6280 o          1 Z74      -0.587100
     11 C4           2.5380    -0.1210    -0.0830 ca         1 Z74      -0.154600
     12 N4          -3.6400     0.3230    -2.4290 n7         1 Z74      -0.845400
     13 O4           1.2530    -0.7880    -1.9970 o          1 Z74      -0.591100
     14 C5           2.5440     0.3210     1.2620 ca         1 Z74      -0.081000
     15 O5          -2.2410     1.0380     1.0390 oh         1 Z74      -0.658000
     16 C6           3.7560     0.5390     1.9400 ca         1 Z74      -0.086300
     17 C7           1.2540    -0.3890    -0.8400 c          1 Z74       0.617700
     18 C8           6.3010    -0.3420    -0.8020 c          1 Z74       0.612700
     19 C9           8.7880    -0.0960    -0.8420 c3         1 Z74       0.099000
     20 C10          7.3200     1.8740    -0.2010 c3         1 Z74       0.099000
     21 C11          8.3590     2.4730     0.7740 c3         1 Z74      -0.096900
     22 C12          8.1000     3.9610     1.0790 c3         1 Z74      -0.089100
     23 C13          9.3150     0.4990    -2.1680 c3         1 Z74      -0.096900
     24 C14         10.6650    -0.1050    -2.6000 c3         1 Z74      -0.089100
     25 C15          3.7470     1.0000     3.3910 c3         1 Z74      -0.046800
     26 C16         -1.2740    -0.4480    -0.6640 c3         1 Z74       0.090700
     27 C17         -2.2270     0.7580    -0.3770 c3         1 Z74       0.167300
     28 C18         -3.6810     0.6130    -0.9580 c6         1 Z74       0.098500
     29 C19         -1.7780    -1.8130    -0.1150 c3         1 Z74      -0.056100
     30 C20         -0.8120    -2.9570    -0.4020 ca         1 Z74      -0.029300
     31 C21          0.1030    -3.3860     0.5800 ca         1 Z74      -0.166000
     32 C22          1.0080    -4.4210     0.2980 ca         1 Z74       0.205500
     33 C23          1.0100    -5.0410    -0.9590 ca         1 Z74      -0.197000
     34 C24          0.0990    -4.6170    -1.9360 ca         1 Z74       0.205500
     35 C25         -0.8090    -3.5820    -1.6630 ca         1 Z74      -0.166000
     36 C26         -4.5600     1.8790    -0.6630 c6         1 Z74       0.169800
     37 C27         -5.9040     1.4450    -2.6770 c6         1 Z74       0.169800
     38 C28         -5.0130     0.2020    -3.0040 c6         1 Z74       0.124800
     39 C29         -6.8100     1.4890     1.3730 ca         1 Z74      -0.299500
     40 C30         -6.1950     0.6660     2.3410 ca         1 Z74      -0.023000
     41 C31         -5.9690     1.1590     3.6380 ca         1 Z74      -0.134000
     42 C32         -6.3510     2.4690     3.9730 ca         1 Z74      -0.057000
     43 C33         -6.9610     3.2900     3.0100 ca         1 Z74      -0.134000
     44 C34         -7.1910     2.8030     1.7110 ca         1 Z74      -0.023000
     45 H1           5.9080     0.4800     1.8170 ha         1 Z74       0.120000
     46 HN1          0.1580     0.2100     0.7800 hn         1 Z74       0.320500
     47 H3           3.7910    -0.6740    -1.7640 ha         1 Z74       0.142000
     48 HN4         -3.1680     1.1030    -2.9040 hn         1 Z74       0.417000
     49 H5           1.6150     0.4920     1.8000 ha         1 Z74       0.118000
     50 HO5         -2.6300     0.2580     1.4900 ho         1 Z74       0.443000
     51 H9           9.5080     0.1180    -0.0420 h1         1 Z74       0.053700
     52 H9A          8.7540    -1.1900    -0.9330 h1         1 Z74       0.053700
     53 H10          7.4170     2.3810    -1.1700 h1         1 Z74       0.053700
     54 H10A         6.3190     2.1210     0.1670 h1         1 Z74       0.053700
     55 H11          8.3370     1.9080     1.7140 hc         1 Z74       0.046450
     56 H11A         9.3680     2.3730     0.3580 hc         1 Z74       0.046450
     57 H12          8.8570     4.3470     1.7730 hc         1 Z74       0.034533
     58 H12A         8.1410     4.5590     0.1600 hc         1 Z74       0.034533
     59 H12B         7.1130     4.0980     1.5380 hc         1 Z74       0.034533
     60 H13          8.5760     0.3240    -2.9610 hc         1 Z74       0.046450
     61 H13A         9.4320     1.5850    -2.0710 hc         1 Z74       0.046450
     62 H14         11.4330     0.0800    -1.8390 hc         1 Z74       0.034533
     63 H14A        10.5760    -1.1890    -2.7460 hc         1 Z74       0.034533
     64 H14B        11.0000     0.3420    -3.5430 hc         1 Z74       0.034533
     65 H15          3.6880     2.0930     3.4520 hc         1 Z74       0.045367
     66 H15A         2.8890     0.5870     3.9360 hc         1 Z74       0.045367
     67 H15B         4.6540     0.6830     3.9190 hc         1 Z74       0.045367
     68 H16         -1.2120    -0.5470    -1.7560 h1         1 Z74       0.104700
     69 H17         -1.7840     1.6210    -0.8950 h1         1 Z74       0.086700
     70 H18         -4.1490    -0.2430    -0.4500 h1         1 Z74       0.066700
     71 H19         -1.9480    -1.7350     0.9650 hc         1 Z74       0.054700
     72 H19A        -2.7520    -2.0470    -0.5600 hc         1 Z74       0.054700
     73 H21          0.1220    -2.9130     1.5580 ha         1 Z74       0.133500
     74 H23          1.7120    -5.8410    -1.1740 ha         1 Z74       0.152000
     75 H25         -1.5020    -3.2610    -2.4360 ha         1 Z74       0.133500
     76 H26         -4.0630     2.7470    -1.1210 h1         1 Z74       0.078700
     77 H26A        -4.5700     2.0850     0.4170 h1         1 Z74       0.078700
     78 H27         -6.9160     1.2870    -3.0790 h1         1 Z74       0.076200
     79 H27A        -5.4900     2.3060    -3.2210 h1         1 Z74       0.076200
     80 H28         -4.9470     0.0800    -4.0950 h1         1 Z74       0.064200
     81 H28A        -5.4930    -0.7060    -2.6120 h1         1 Z74       0.064200
     82 H30         -5.8920    -0.3510     2.0960 ha         1 Z74       0.136500
     83 H31         -5.4950     0.5250     4.3840 ha         1 Z74       0.121500
     84 H32         -6.1740     2.8480     4.9780 ha         1 Z74       0.121000
     85 H33         -7.2550     4.3040     3.2680 ha         1 Z74       0.121500
     86 H34         -7.6590     3.4500     0.9690 ha         1 Z74       0.136500
     87 S1          -7.0910     0.8780    -0.3020 sy         1 Z74       1.169600
     88 F2           1.8860    -4.8210     1.2430 f          1 Z74      -0.168500
@<TRIPOS>BOND
     1     1     5 ar  
     2     1    16 ar  
     3     1    45 1   
     4     2    34 1   
     5     3    17 1   
     6     3    26 1   
     7     3    46 1   
     8     4    87 2   
     9     5     8 ar  
    10     5    18 1   
    11     6    18 1   
    12     6    19 1   
    13     6    20 1   
    14     7    87 2   
    15     8    11 ar  
    16     8    47 1   
    17     9    36 1   
    18     9    37 1   
    19     9    87 1   
    20    10    18 2   
    21    11    14 ar  
    22    11    17 1   
    23    12    28 1   
    24    12    38 1   
    25    12    48 1   
    26    13    17 2   
    27    14    16 ar  
    28    14    49 1   
    29    15    27 1   
    30    15    50 1   
    31    16    25 1   
    32    19    23 1   
    33    19    51 1   
    34    19    52 1   
    35    20    21 1   
    36    20    53 1   
    37    20    54 1   
    38    21    22 1   
    39    21    55 1   
    40    21    56 1   
    41    22    57 1   
    42    22    58 1   
    43    22    59 1   
    44    23    24 1   
    45    23    60 1   
    46    23    61 1   
    47    24    62 1   
    48    24    63 1   
    49    24    64 1   
    50    25    65 1   
    51    25    66 1   
    52    25    67 1   
    53    26    27 1   
    54    26    29 1   
    55    26    68 1   
    56    27    28 1   
    57    27    69 1   
    58    28    36 1   
    59    28    70 1   
    60    29    30 1   
    61    29    71 1   
    62    29    72 1   
    63    30    31 ar  
    64    30    35 ar  
    65    31    32 ar  
    66    31    73 1   
    67    32    33 ar  
    68    32    88 1   
    69    33    34 ar  
    70    33    74 1   
    71    34    35 ar  
    72    35    75 1   
    73    36    76 1   
    74    36    77 1   
    75    37    38 1   
    76    37    78 1   
    77    37    79 1   
    78    38    80 1   
    79    38    81 1   
    80    39    40 ar  
    81    39    44 ar  
    82    39    87 1   
    83    40    41 ar  
    84    40    82 1   
    85    41    42 ar  
    86    41    83 1   
    87    42    43 ar  
    88    42    84 1   
    89    43    44 ar  
    90    43    85 1   
    91    44    86 1   
@<TRIPOS>SUBSTRUCTURE
     1 Z74         1 TEMP              0 ****  ****    0 ROOT
