@<TRIPOS>MOLECULE
Z74
   88    91     1     0     0
SMALL
bcc


@<TRIPOS>ATOM
      1 C1           4.7200     1.6750     1.7160 ca         1 Z74      -0.085000
      2 F1           0.9460    -3.8310    -3.0110 f          1 Z74      -0.133400
      3 N1           0.0660     0.9590     0.0180 ns         1 Z74      -0.565900
      4 O1          -7.1600     2.3760     1.2660 o          1 Z74      -0.601800
      5 C2           4.7260     0.6350     0.7930 ca         1 Z74      -0.141600
      6 N2           7.0170     0.1930     0.0910 n          1 Z74      -0.470800
      7 O2          -8.2890     1.0150    -0.5190 o          1 Z74      -0.601800
      8 C3           3.5900     0.3690     0.0440 ca         1 Z74      -0.050000
      9 N3          -5.9950     1.9270    -0.8930 n3         1 Z74      -0.748500
     10 O3           5.8240    -1.4150     1.1420 o          1 Z74      -0.587100
     11 C4           2.4490     1.1430     0.2220 ca         1 Z74      -0.154600
     12 N4          -3.6140     0.8480    -2.1010 n7         1 Z74      -0.790200
     13 O4           1.3660     0.4530    -1.7680 o          1 Z74      -0.591100
     14 C5           2.4530     2.1790     1.1500 ca         1 Z74      -0.099000
     15 O5          -2.2940     1.8330     1.2070 oh         1 Z74      -0.595800
     16 C6           3.5890     2.4620     1.9050 ca         1 Z74      -0.086300
     17 C7           1.2490     0.8220    -0.6110 c          1 Z74       0.684700
     18 C8           5.9070    -0.2830     0.6830 c          1 Z74       0.679700
     19 C9           8.1880    -0.6660    -0.0010 c3         1 Z74       0.099000
     20 C10          7.0870     1.4620    -0.6150 c3         1 Z74       0.099000
     21 C11          7.8520     2.5450     0.1340 c3         1 Z74      -0.096900
     22 C12          7.9880     3.8060    -0.7070 c3         1 Z74      -0.089100
     23 C13          8.1600    -1.5980    -1.2070 c3         1 Z74      -0.096900
     24 C14          9.4070    -2.4690    -1.2680 c3         1 Z74      -0.089100
     25 C15          3.5910     3.6000     2.8830 c3         1 Z74      -0.046800
     26 C16         -1.1960     0.5340    -0.5440 c3         1 Z74       0.090700
     27 C17         -2.2640     1.5760    -0.1820 c3         1 Z74       0.144100
     28 C18         -3.6520     1.2000    -0.6940 c6         1 Z74       0.098500
     29 C19         -1.5540    -0.8910    -0.0790 c3         1 Z74      -0.056100
     30 C20         -0.4220    -1.8440    -0.3280 ca         1 Z74      -0.029300
     31 C21          0.5380    -2.0630     0.6540 ca         1 Z74      -0.184000
     32 C22          1.6220    -2.8690     0.3640 ca         1 Z74       0.170400
     33 C23          1.7950    -3.4780    -0.8630 ca         1 Z74      -0.215000
     34 C24          0.8140    -3.2480    -1.8100 ca         1 Z74       0.170400
     35 C25         -0.2850    -2.4490    -1.5730 ca         1 Z74      -0.184000
     36 C26         -4.6690     2.3100    -0.4130 c6         1 Z74       0.169800
     37 C27         -6.0180     1.4760    -2.2860 c6         1 Z74       0.169800
     38 C28         -4.9290     0.4470    -2.5730 c6         1 Z74       0.124800
     39 C29         -6.3850    -0.0860     0.9210 ca         1 Z74      -0.299500
     40 C30         -6.5290    -1.2960     0.2540 ca         1 Z74      -0.041000
     41 C31         -5.8570    -2.4120     0.7280 ca         1 Z74      -0.152000
     42 C32         -5.0490    -2.3140     1.8540 ca         1 Z74      -0.075000
     43 C33         -4.9320    -1.1050     2.5280 ca         1 Z74      -0.152000
     44 C34         -5.6050     0.0180     2.0670 ca         1 Z74      -0.041000
     45 H1           5.6070     1.8720     2.3080 ha         1 Z74       0.138000
     46 HN1          0.0710     1.1580     1.0070 hn         1 Z74       0.320500
     47 H3           3.5870    -0.4420    -0.6730 ha         1 Z74       0.160000
     48 HN4         -3.2870     1.6430    -2.6430 hn         1 Z74       0.361800
     49 H5           1.5710     2.7960     1.2820 ha         1 Z74       0.136000
     50 HO5         -2.6830     1.0790     1.6650 ho         1 Z74       0.404000
     51 H9           9.0700    -0.0240    -0.0510 h1         1 Z74       0.053700
     52 H9A          8.2790    -1.2470     0.9180 h1         1 Z74       0.053700
     53 H10          7.5680     1.2810    -1.5810 h1         1 Z74       0.053700
     54 H10A         6.0800     1.8110    -0.8450 h1         1 Z74       0.053700
     55 H11          7.3400     2.7750     1.0710 hc         1 Z74       0.046450
     56 H11A         8.8450     2.1760     0.4060 hc         1 Z74       0.046450
     57 H12          8.5410     4.5790    -0.1740 hc         1 Z74       0.034533
     58 H12A         8.5180     3.6030    -1.6400 hc         1 Z74       0.034533
     59 H12B         7.0100     4.2170    -0.9660 hc         1 Z74       0.034533
     60 H13          7.2690    -2.2270    -1.1590 hc         1 Z74       0.046450
     61 H13A         8.0790    -1.0060    -2.1240 hc         1 Z74       0.046450
     62 H14         10.3140    -1.8640    -1.3270 hc         1 Z74       0.034533
     63 H14A         9.4890    -3.1010    -0.3810 hc         1 Z74       0.034533
     64 H14B         9.3890    -3.1220    -2.1390 hc         1 Z74       0.034533
     65 H15          3.6650     4.5580     2.3640 hc         1 Z74       0.045367
     66 H15A         2.6730     3.6210     3.4700 hc         1 Z74       0.045367
     67 H15B         4.4330     3.5320     3.5700 hc         1 Z74       0.045367
     68 H16         -1.0900     0.5230    -1.6280 h1         1 Z74       0.104700
     69 H17         -1.9580     2.5210    -0.6440 h1         1 Z74       0.086700
     70 H18         -3.9740     0.2980    -0.1580 h1         1 Z74       0.066700
     71 H19         -1.8010    -0.8940     0.9870 hc         1 Z74       0.054700
     72 H19A        -2.4410    -1.2240    -0.6210 hc         1 Z74       0.054700
     73 H21          0.4480    -1.6100     1.6330 ha         1 Z74       0.151500
     74 H23          2.6500    -4.1070    -1.0700 ha         1 Z74       0.170000
     75 H25         -1.0200    -2.2880    -2.3520 ha         1 Z74       0.151500
     76 H26         -4.3710     3.2200    -0.9460 h1         1 Z74       0.078700
     77 H26A        -4.7110     2.5740     0.6430 h1         1 Z74       0.078700
     78 H27         -7.0020     1.0860    -2.5380 h1         1 Z74       0.076200
     79 H27A        -5.8610     2.3620    -2.9080 h1         1 Z74       0.076200
     80 H28         -4.8850     0.2660    -3.6480 h1         1 Z74       0.064200
     81 H28A        -5.1820    -0.5070    -2.1020 h1         1 Z74       0.064200
     82 H30         -7.1540    -1.3750    -0.6260 ha         1 Z74       0.154500
     83 H31         -5.9640    -3.3580     0.2150 ha         1 Z74       0.139500
     84 H32         -4.5180    -3.1860     2.2140 ha         1 Z74       0.139000
     85 H33         -4.3190    -1.0330     3.4160 ha         1 Z74       0.139500
     86 H34         -5.5190     0.9550     2.6000 ha         1 Z74       0.154500
     87 S1          -7.0850     1.3800     0.2090 sy         1 Z74       1.311200
     88 F2           2.5490    -3.0690     1.3100 f          1 Z74      -0.133400
@<TRIPOS>BOND
     1     1     5 ar  
     2     1    16 ar  
     3     1    45 1   
     4     2    34 1   
     5     3    17 1   
     6     3    26 1   
     7     3    46 1   
     8     4    87 2   
     9     5     8 ar  
    10     5    18 1   
    11     6    18 1   
    12     6    19 1   
    13     6    20 1   
    14     7    87 2   
    15     8    11 ar  
    16     8    47 1   
    17     9    36 1   
    18     9    37 1   
    19     9    87 1   
    20    10    18 2   
    21    11    14 ar  
    22    11    17 1   
    23    12    28 1   
    24    12    38 1   
    25    12    48 1   
    26    13    17 2   
    27    14    16 ar  
    28    14    49 1   
    29    15    27 1   
    30    15    50 1   
    31    16    25 1   
    32    19    23 1   
    33    19    51 1   
    34    19    52 1   
    35    20    21 1   
    36    20    53 1   
    37    20    54 1   
    38    21    22 1   
    39    21    55 1   
    40    21    56 1   
    41    22    57 1   
    42    22    58 1   
    43    22    59 1   
    44    23    24 1   
    45    23    60 1   
    46    23    61 1   
    47    24    62 1   
    48    24    63 1   
    49    24    64 1   
    50    25    65 1   
    51    25    66 1   
    52    25    67 1   
    53    26    27 1   
    54    26    29 1   
    55    26    68 1   
    56    27    28 1   
    57    27    69 1   
    58    28    36 1   
    59    28    70 1   
    60    29    30 1   
    61    29    71 1   
    62    29    72 1   
    63    30    31 ar  
    64    30    35 ar  
    65    31    32 ar  
    66    31    73 1   
    67    32    33 ar  
    68    32    88 1   
    69    33    34 ar  
    70    33    74 1   
    71    34    35 ar  
    72    35    75 1   
    73    36    76 1   
    74    36    77 1   
    75    37    38 1   
    76    37    78 1   
    77    37    79 1   
    78    38    80 1   
    79    38    81 1   
    80    39    40 ar  
    81    39    44 ar  
    82    39    87 1   
    83    40    41 ar  
    84    40    82 1   
    85    41    42 ar  
    86    41    83 1   
    87    42    43 ar  
    88    42    84 1   
    89    43    44 ar  
    90    43    85 1   
    91    44    86 1   
@<TRIPOS>SUBSTRUCTURE
     1 Z74         1 TEMP              0 ****  ****    0 ROOT
