@<TRIPOS>MOLECULE
Z75
   88    91     1     0     0
SMALL
No Charge or Current Charge


@<TRIPOS>ATOM
      1 C1           4.8710     1.3620     1.0880 ca         1 Z75      -0.065000
      2 F1           2.3480    -3.6550     3.2210 f          1 Z75      -0.172500
      3 N1           7.1400     0.9820    -0.8430 n          1 Z75      -0.403800
      4 O1           6.1260    -1.0450    -1.2570 o          1 Z75      -0.589100
      5 C2           4.8020     0.5000    -0.0280 ca         1 Z75      -0.146600
      6 F2           0.1690    -5.6820    -0.4940 f          1 Z75      -0.172500
      7 N2          -0.0660     0.0910     0.5600 ns         1 Z75      -0.496900
      8 O2           0.9780    -1.0690    -1.0910 o          1 Z75      -0.598100
      9 C3           3.5520    -0.0370    -0.3980 ca         1 Z75      -0.023000
     10 N3          -4.0220    -0.5100    -1.2250 n7         1 Z75      -0.849400
     11 O3          -2.3630     1.4890     1.5630 oh         1 Z75      -0.660000
     12 C4           2.3710     0.3090     0.2950 ca         1 Z75      -0.152600
     13 N4          -6.3280     1.1300    -0.3230 n3         1 Z75      -0.722600
     14 C5           2.4640     1.1970     1.3930 ca         1 Z75      -0.077000
     15 C6           3.7090     1.7160     1.7920 ca         1 Z75      -0.092300
     16 C7           6.0440     0.0840    -0.7860 c          1 Z75       0.613700
     17 C8           8.4770     0.4500    -1.2290 c3         1 Z75       0.098000
     18 C9           6.8870     2.4260    -1.1180 c3         1 Z75       0.098000
     19 C10          7.9500     3.3930    -0.5480 c3         1 Z75      -0.097400
     20 C11          7.5730     4.8740    -0.7400 c3         1 Z75      -0.088600
     21 C12          8.8050     0.5710    -2.7350 c3         1 Z75      -0.097400
     22 C13         10.1600    -0.0630    -3.1030 c3         1 Z75      -0.088600
     23 C14          3.7960     2.6570     2.9840 c3         1 Z75      -0.045800
     24 C15          1.0520    -0.2890    -0.1510 c          1 Z75       0.617700
     25 C16         -1.4250    -0.4410     0.3630 c3         1 Z75       0.090700
     26 C17         -2.4650     0.7270     0.3390 c3         1 Z75       0.160300
     27 C18         -1.7260    -1.5520     1.4080 c3         1 Z75      -0.056100
     28 C19         -0.6820    -2.6620     1.4070 ca         1 Z75      -0.026300
     29 C20          0.3680    -2.6600     2.3470 ca         1 Z75      -0.166000
     30 C21          1.3420    -3.6700     2.3210 ca         1 Z75       0.204500
     31 C22          1.2790    -4.6930     1.3650 ca         1 Z75      -0.194000
     32 C23          0.2340    -4.7000     0.4310 ca         1 Z75       0.204500
     33 C24         -0.7430    -3.6920     0.4490 ca         1 Z75      -0.166000
     34 C25         -3.9470     0.2950     0.0360 c6         1 Z75       0.128500
     35 C26         -4.9170     1.5280    -0.0280 c6         1 Z75       0.136800
     36 C28         -6.3940     0.3020    -1.5680 c6         1 Z75       0.124800
     37 C29         -5.4250    -0.9210    -1.5150 c6         1 Z75       0.150800
     38 C31         -8.7230     1.8930    -0.4630 ca         1 Z75      -0.090300
     39 C32         -9.3740     1.2450     0.6050 ca         1 Z75      -0.098500
     40 C33        -10.7280     0.8800     0.4960 ca         1 Z75      -0.113500
     41 C34        -11.4390     1.1610    -0.6820 ca         1 Z75      -0.108000
     42 C35        -10.7960     1.8070    -1.7520 ca         1 Z75      -0.113500
     43 C36         -9.4430     2.1730    -1.6430 ca         1 Z75      -0.098500
     44 H1           5.8320     1.7510     1.4180 ha         1 Z75       0.120000
     45 HN2          0.0670     0.7720     1.2950 hn         1 Z75       0.317500
     46 H3           3.5000    -0.7230    -1.2430 ha         1 Z75       0.150000
     47 HN3         -3.7070     0.0810    -2.0040 hn         1 Z75       0.409000
     48 HO3         -2.7020     0.9250     2.2910 ho         1 Z75       0.443000
     49 H5           1.5810     1.4880     1.9550 ha         1 Z75       0.113000
     50 H8           9.2470     0.9760    -0.6510 h1         1 Z75       0.052950
     51 H8A          8.5450    -0.6050    -0.9350 h1         1 Z75       0.052950
     52 H9           6.8350     2.5650    -2.2060 h1         1 Z75       0.052950
     53 H9A          5.9070     2.7260    -0.7320 h1         1 Z75       0.052950
     54 H10          8.0790     3.1940     0.5230 hc         1 Z75       0.046950
     55 H10A         8.9180     3.2150    -1.0300 hc         1 Z75       0.046950
     56 H11          6.6270     5.1030    -0.2330 hc         1 Z75       0.034200
     57 H11A         8.3510     5.5240    -0.3230 hc         1 Z75       0.034200
     58 H11B         7.4620     5.1110    -1.8050 hc         1 Z75       0.034200
     59 H12          8.0130     0.0850    -3.3170 hc         1 Z75       0.046950
     60 H12A         8.8210     1.6270    -3.0310 hc         1 Z75       0.046950
     61 H13         10.9770     0.4240    -2.5580 hc         1 Z75       0.034200
     62 H13A        10.1680    -1.1320    -2.8580 hc         1 Z75       0.034200
     63 H13B        10.3530     0.0430    -4.1780 hc         1 Z75       0.034200
     64 H14          3.6400     3.6970     2.6730 hc         1 Z75       0.044367
     65 H14A         3.0400     2.4160     3.7410 hc         1 Z75       0.044367
     66 H14B         4.7770     2.5980     3.4720 hc         1 Z75       0.044367
     67 H16         -1.4620    -0.9160    -0.6270 h1         1 Z75       0.106700
     68 H17         -2.1680     1.3760    -0.4970 h1         1 Z75       0.081700
     69 H18         -1.7920    -1.1070     2.4080 hc         1 Z75       0.057700
     70 H18A        -2.7110    -1.9870     1.2030 hc         1 Z75       0.057700
     71 H20          0.4380    -1.8710     3.0910 ha         1 Z75       0.134000
     72 H22          2.0340    -5.4730     1.3480 ha         1 Z75       0.152000
     73 H24         -1.5410    -3.7080    -0.2890 ha         1 Z75       0.134000
     74 H25         -4.2850    -0.3390     0.8690 h1         1 Z75       0.070700
     75 H26         -4.5540     2.2260    -0.7970 h1         1 Z75       0.041200
     76 H26A        -4.8780     2.0630     0.9320 h1         1 Z75       0.041200
     77 H28         -7.4150    -0.0750    -1.7280 h1         1 Z75       0.041700
     78 H28A        -6.1390     0.9160    -2.4440 h1         1 Z75       0.041700
     79 H29         -5.4650    -1.4600    -2.4740 h1         1 Z75       0.062200
     80 H29A        -5.7710    -1.6150    -0.7350 h1         1 Z75       0.062200
     81 H30         -7.1390     2.8650     0.5900 h1         1 Z75       0.039700
     82 H30A        -6.9910     2.9660    -1.1640 h1         1 Z75       0.039700
     83 H32         -8.8260     1.0210     1.5180 ha         1 Z75       0.116500
     84 H33        -11.2230     0.3780     1.3240 ha         1 Z75       0.112000
     85 H34        -12.4860     0.8780    -0.7670 ha         1 Z75       0.113000
     86 H35        -11.3460     2.0250    -2.6650 ha         1 Z75       0.112000
     87 H36         -8.9520     2.6710    -2.4760 ha         1 Z75       0.116500
     88 C30         -7.2530     2.2890    -0.3390 c3         1 Z75       0.216100
@<TRIPOS>BOND
     1     1     5 ar  
     2     1    15 ar  
     3     1    44 1   
     4     2    30 1   
     5     3    16 1   
     6     3    17 1   
     7     3    18 1   
     8     4    16 2   
     9     5     9 ar  
    10     5    16 1   
    11     6    32 1   
    12     7    24 1   
    13     7    25 1   
    14     7    45 1   
    15     8    24 2   
    16     9    12 ar  
    17     9    46 1   
    18    10    34 1   
    19    10    37 1   
    20    10    47 1   
    21    11    26 1   
    22    11    48 1   
    23    12    14 ar  
    24    12    24 1   
    25    13    35 1   
    26    13    36 1   
    27    13    88 1   
    28    14    15 ar  
    29    14    49 1   
    30    15    23 1   
    31    17    21 1   
    32    17    50 1   
    33    17    51 1   
    34    18    19 1   
    35    18    52 1   
    36    18    53 1   
    37    19    20 1   
    38    19    54 1   
    39    19    55 1   
    40    20    56 1   
    41    20    57 1   
    42    20    58 1   
    43    21    22 1   
    44    21    59 1   
    45    21    60 1   
    46    22    61 1   
    47    22    62 1   
    48    22    63 1   
    49    23    64 1   
    50    23    65 1   
    51    23    66 1   
    52    25    26 1   
    53    25    27 1   
    54    25    67 1   
    55    26    34 1   
    56    26    68 1   
    57    27    28 1   
    58    27    69 1   
    59    27    70 1   
    60    28    29 ar  
    61    28    33 ar  
    62    29    30 ar  
    63    29    71 1   
    64    30    31 ar  
    65    31    32 ar  
    66    31    72 1   
    67    32    33 ar  
    68    33    73 1   
    69    34    35 1   
    70    34    74 1   
    71    35    75 1   
    72    35    76 1   
    73    36    37 1   
    74    36    77 1   
    75    36    78 1   
    76    37    79 1   
    77    37    80 1   
    78    38    39 ar  
    79    38    43 ar  
    80    38    88 1   
    81    39    40 ar  
    82    39    83 1   
    83    40    41 ar  
    84    40    84 1   
    85    41    42 ar  
    86    41    85 1   
    87    42    43 ar  
    88    42    86 1   
    89    43    87 1   
    90    81    88 1   
    91    82    88 1   
@<TRIPOS>SUBSTRUCTURE
     1 Z75         1 TEMP              0 ****  ****    0 ROOT
