@<TRIPOS>MOLECULE
Z75
   88    91     1     0     0
SMALL
bcc


@<TRIPOS>ATOM
      1 C1           4.7910     1.6030     1.4330 ca         1 Z75      -0.083000
      2 F1           2.6280    -3.1680     2.5300 f          1 Z75      -0.137400
      3 N1           6.9710     0.7830    -0.6250 n          1 Z75      -0.470800
      4 O1           6.1650    -1.2170     0.0510 o          1 Z75      -0.589100
      5 C2           4.7730     0.6420     0.4270 ca         1 Z75      -0.146600
      6 F2           0.5270    -5.0620    -1.1870 f          1 Z75      -0.137400
      7 N2          -0.0300     0.4580     0.4830 ns         1 Z75      -0.563900
      8 O2           1.1100    -0.3680    -1.2850 o          1 Z75      -0.598100
      9 C3           3.5600     0.2010    -0.0800 ca         1 Z75      -0.041000
     10 N3          -3.7700    -0.3180    -1.2920 n7         1 Z75      -0.794200
     11 O3          -2.3400     1.6420     1.4930 oh         1 Z75      -0.597800
     12 C4           2.3670     0.7420     0.3860 ca         1 Z75      -0.152600
     13 N4          -6.1230     1.0990    -0.4410 n3         1 Z75      -0.722600
     14 C5           2.4050     1.7190     1.3770 ca         1 Z75      -0.095000
     15 C6           3.6100     2.1540     1.9180 ca         1 Z75      -0.092300
     16 C7           6.0310    -0.0050    -0.0680 c          1 Z75       0.680700
     17 C8           8.1980     0.1670    -1.1110 c3         1 Z75       0.098000
     18 C9           6.7630     2.1720    -1.0070 c3         1 Z75       0.098000
     19 C10          7.5690     3.1680    -0.1820 c3         1 Z75      -0.097400
     20 C11          7.2900     4.5980    -0.6210 c3         1 Z75      -0.088600
     21 C12          8.0670    -0.4130    -2.5150 c3         1 Z75      -0.097400
     22 C13          9.3930    -0.9670    -3.0170 c3         1 Z75      -0.088600
     23 C14          3.6350     3.2180     2.9760 c3         1 Z75      -0.045800
     24 C15          1.0950     0.2270    -0.2170 c          1 Z75       0.684700
     25 C16         -1.3160    -0.1150     0.1510 c3         1 Z75       0.090700
     26 C17         -2.3850     0.9820     0.2460 c3         1 Z75       0.137100
     27 C18         -1.6090    -1.3300     1.0480 c3         1 Z75      -0.056100
     28 C19         -0.5100    -2.3460     0.9520 ca         1 Z75      -0.026300
     29 C20          0.5590    -2.3130     1.8410 ca         1 Z75      -0.184000
     30 C21          1.5980    -3.2080     1.6740 ca         1 Z75       0.169400
     31 C22          1.6220    -4.1480     0.6630 ca         1 Z75      -0.212000
     32 C23          0.5400    -4.1580    -0.1970 ca         1 Z75       0.169400
     33 C24         -0.5200    -3.2840    -0.0780 ca         1 Z75      -0.184000
     34 C25         -3.7910     0.4750    -0.0750 c6         1 Z75       0.128500
     35 C26         -4.8030     1.6180    -0.1400 c6         1 Z75       0.136800
     36 C28         -6.1240     0.3620    -1.6920 c6         1 Z75       0.124800
     37 C29         -5.1060    -0.7650    -1.6450 c6         1 Z75       0.150800
     38 C31         -8.5310     1.5830    -0.3650 ca         1 Z75      -0.090300
     39 C32         -8.8400     0.5400     0.5070 ca         1 Z75      -0.116500
     40 C33        -10.1350     0.0520     0.5950 ca         1 Z75      -0.131500
     41 C34        -11.1450     0.5990    -0.1900 ca         1 Z75      -0.126000
     42 C35        -10.8450     1.6350    -1.0630 ca         1 Z75      -0.131500
     43 C36         -9.5450     2.1190    -1.1500 ca         1 Z75      -0.116500
     44 H1           5.7350     1.9280     1.8530 ha         1 Z75       0.138000
     45 HN2          0.0360     0.8790     1.3960 hn         1 Z75       0.317500
     46 H3           3.5380    -0.5640    -0.8450 ha         1 Z75       0.168000
     47 HN3         -3.3990     0.2440    -2.0520 hn         1 Z75       0.353800
     48 HO3         -2.7580     1.0880     2.1610 ho         1 Z75       0.404000
     49 H5           1.4940     2.1810     1.7410 ha         1 Z75       0.131000
     50 H8           8.9790     0.9300    -1.0990 h1         1 Z75       0.052950
     51 H8A          8.5150    -0.6090    -0.4130 h1         1 Z75       0.052950
     52 H9           7.0320     2.2770    -2.0630 h1         1 Z75       0.052950
     53 H9A          5.7030     2.4140    -0.9450 h1         1 Z75       0.052950
     54 H10          7.3270     3.0510     0.8770 hc         1 Z75       0.046950
     55 H10A         8.6370     2.9570    -0.2780 hc         1 Z75       0.046950
     56 H11          6.2360     4.8510    -0.4950 hc         1 Z75       0.034200
     57 H11A         7.8730     5.3100    -0.0390 hc         1 Z75       0.034200
     58 H11B         7.5420     4.7460    -1.6730 hc         1 Z75       0.034200
     59 H12          7.3120    -1.2020    -2.5130 hc         1 Z75       0.046950
     60 H12A         7.7100     0.3630    -3.1980 hc         1 Z75       0.046950
     61 H13         10.1610    -0.1920    -3.0500 hc         1 Z75       0.034200
     62 H13A         9.7580    -1.7670    -2.3710 hc         1 Z75       0.034200
     63 H13B         9.2930    -1.3760    -4.0220 hc         1 Z75       0.034200
     64 H14          3.6430     4.2130     2.5250 hc         1 Z75       0.044367
     65 H14A         2.7600     3.1600     3.6200 hc         1 Z75       0.044367
     66 H14B         4.5240     3.1370     3.6000 hc         1 Z75       0.044367
     67 H16         -1.2710    -0.4570    -0.8810 h1         1 Z75       0.106700
     68 H17         -2.1150     1.7460    -0.4940 h1         1 Z75       0.081700
     69 H18         -1.7290    -1.0130     2.0870 hc         1 Z75       0.057700
     70 H18A        -2.5540    -1.7740     0.7310 hc         1 Z75       0.057700
     71 H20          0.5920    -1.5950     2.6500 ha         1 Z75       0.152000
     72 H22          2.4440    -4.8430     0.5520 ha         1 Z75       0.170000
     73 H24         -1.3410    -3.3220    -0.7830 ha         1 Z75       0.152000
     74 H25         -4.1170    -0.1950     0.7330 h1         1 Z75       0.070700
     75 H26         -4.4660     2.3560    -0.8930 h1         1 Z75       0.041200
     76 H26A        -4.8450     2.1400     0.8190 h1         1 Z75       0.041200
     77 H28         -7.1200    -0.0510    -1.8680 h1         1 Z75       0.041700
     78 H28A        -5.8990     1.0270    -2.5460 h1         1 Z75       0.041700
     79 H29         -5.0670    -1.2690    -2.6120 h1         1 Z75       0.062200
     80 H29A        -5.4260    -1.5090    -0.9080 h1         1 Z75       0.062200
     81 H30         -6.9610     2.7590     0.4590 h1         1 Z75       0.039700
     82 H30A        -7.0420     2.8120    -1.2940 h1         1 Z75       0.039700
     83 H32         -8.0540     0.1040     1.1110 ha         1 Z75       0.134500
     84 H33        -10.3580    -0.7600     1.2760 ha         1 Z75       0.130000
     85 H34        -12.1550     0.2160    -0.1230 ha         1 Z75       0.131000
     86 H35        -11.6210     2.0620    -1.6860 ha         1 Z75       0.130000
     87 H36         -9.3190     2.9230    -1.8410 ha         1 Z75       0.134500
     88 C30         -7.1300     2.1370    -0.4260 c3         1 Z75       0.216100
@<TRIPOS>BOND
     1     1     5 ar  
     2     1    15 ar  
     3     1    44 1   
     4     2    30 1   
     5     3    16 1   
     6     3    17 1   
     7     3    18 1   
     8     4    16 2   
     9     5     9 ar  
    10     5    16 1   
    11     6    32 1   
    12     7    24 1   
    13     7    25 1   
    14     7    45 1   
    15     8    24 2   
    16     9    12 ar  
    17     9    46 1   
    18    10    34 1   
    19    10    37 1   
    20    10    47 1   
    21    11    26 1   
    22    11    48 1   
    23    12    14 ar  
    24    12    24 1   
    25    13    35 1   
    26    13    36 1   
    27    13    88 1   
    28    14    15 ar  
    29    14    49 1   
    30    15    23 1   
    31    17    21 1   
    32    17    50 1   
    33    17    51 1   
    34    18    19 1   
    35    18    52 1   
    36    18    53 1   
    37    19    20 1   
    38    19    54 1   
    39    19    55 1   
    40    20    56 1   
    41    20    57 1   
    42    20    58 1   
    43    21    22 1   
    44    21    59 1   
    45    21    60 1   
    46    22    61 1   
    47    22    62 1   
    48    22    63 1   
    49    23    64 1   
    50    23    65 1   
    51    23    66 1   
    52    25    26 1   
    53    25    27 1   
    54    25    67 1   
    55    26    34 1   
    56    26    68 1   
    57    27    28 1   
    58    27    69 1   
    59    27    70 1   
    60    28    29 ar  
    61    28    33 ar  
    62    29    30 ar  
    63    29    71 1   
    64    30    31 ar  
    65    31    32 ar  
    66    31    72 1   
    67    32    33 ar  
    68    33    73 1   
    69    34    35 1   
    70    34    74 1   
    71    35    75 1   
    72    35    76 1   
    73    36    37 1   
    74    36    77 1   
    75    36    78 1   
    76    37    79 1   
    77    37    80 1   
    78    38    39 ar  
    79    38    43 ar  
    80    38    88 1   
    81    39    40 ar  
    82    39    83 1   
    83    40    41 ar  
    84    40    84 1   
    85    41    42 ar  
    86    41    85 1   
    87    42    43 ar  
    88    42    86 1   
    89    43    87 1   
    90    81    88 1   
    91    82    88 1   
@<TRIPOS>SUBSTRUCTURE
     1 Z75         1 TEMP              0 ****  ****    0 ROOT
