@<TRIPOS>MOLECULE
Z76
   90    94     1     0     0
SMALL
abcg2


@<TRIPOS>ATOM
      1 C1           4.5270     2.9180     1.4150 ca         1 Z76      -0.048000
      2 F1           2.8750    -2.3810     2.0750 f          1 Z76      -0.172500
      3 N1           6.5390     0.5460    -0.3230 n          1 Z76      -0.399800
      4 O1           6.5800     0.8770     1.9100 o          1 Z76      -0.610100
      5 C2           4.7050     1.7120     0.7460 ca         1 Z76      -0.145600
      6 N2           0.0430     1.1520     0.0520 ns         1 Z76      -0.500900
      7 O2           1.4340     0.3500    -1.5480 o          1 Z76      -0.594100
      8 C3           3.6330     1.1110     0.1030 ca         1 Z76      -0.037000
      9 N3          -3.3570     0.2290    -2.2360 n7         1 Z76      -0.846400
     10 O3          -2.5330     2.0370     0.8790 oh         1 Z76      -0.657000
     11 C4           2.3770     1.7060     0.1480 ca         1 Z76      -0.161600
     12 N4          -5.9500     1.2870    -1.5700 n3         1 Z76      -0.747500
     13 C5           2.2170     2.9250     0.7970 ca         1 Z76      -0.078000
     14 C6           3.2900     3.5540     1.4250 ca         1 Z76      -0.092300
     15 O6          -7.4360     1.9840     0.3060 o          1 Z76      -0.531500
     16 C7           6.0280     1.0180     0.8230 c          1 Z76       0.619700
     17 O7          -8.2000     0.2330    -1.3250 o          1 Z76      -0.531500
     18 C8           7.7390    -0.2940    -0.3310 c5         1 Z76       0.113700
     19 C9           6.1460     0.9400    -1.6710 c5         1 Z76       0.105000
     20 C10          7.4660     0.8910    -2.4250 c5         1 Z76      -0.095400
     21 C11          8.1620    -0.3170    -1.8070 c5         1 Z76      -0.089400
     22 C12          7.4600    -1.6730     0.2410 c3         1 Z76       0.143600
     23 C14          3.1130     4.8910     2.0820 c3         1 Z76      -0.046800
     24 C15          1.2460     1.0060    -0.5350 c          1 Z76       0.617700
     25 C16         -1.1510     0.4720    -0.3900 c3         1 Z76       0.088700
     26 C17         -2.3220     1.4640    -0.3940 c3         1 Z76       0.165300
     27 C18         -1.4150    -0.7770     0.4700 c3         1 Z76      -0.056100
     28 C19         -0.2570    -1.7270     0.4080 ca         1 Z76      -0.024300
     29 C20          0.7810    -1.6390     1.3310 ca         1 Z76      -0.164000
     30 C21          1.8730    -2.4730     1.1910 ca         1 Z76       0.205000
     31 C22          1.9780    -3.4050     0.1770 ca         1 Z76      -0.196000
     32 C23          0.9250    -3.4700    -0.7150 ca         1 Z76       0.205000
     33 C24         -0.1840    -2.6560    -0.6250 ca         1 Z76      -0.164000
     34 C25         -4.7360     1.8810    -1.0100 c6         1 Z76       0.170800
     35 C27         -5.7400     0.5960    -2.8430 c6         1 Z76       0.168800
     36 C28         -4.5630    -0.3710    -2.7790 c6         1 Z76       0.125800
     37 C29         -3.6060     0.8500    -0.9480 c6         1 Z76       0.099500
     38 C34          6.0100    -3.4950     0.0600 c3         1 Z76       0.144900
     39 C35         -6.4330    -1.7360     0.0850 ca         1 Z76      -0.024000
     40 C36         -5.7590    -2.6780     0.8490 ca         1 Z76      -0.125000
     41 C37         -5.1130    -2.3030     2.0170 ca         1 Z76      -0.061000
     42 C38         -5.1460    -0.9830     2.4690 ca         1 Z76      -0.102300
     43 C39         -5.8310    -0.0410     1.7080 ca         1 Z76      -0.027000
     44 C40         -6.4490    -0.4190     0.5210 ca         1 Z76      -0.294500
     45 H1           5.3650     3.3770     1.9250 ha         1 Z76       0.129000
     46 HN2         -0.0020     1.6160     0.9470 hn         1 Z76       0.321500
     47 H3           3.7590     0.1620    -0.4020 ha         1 Z76       0.145000
     48 HN3         -3.0060     0.9260    -2.8850 hn         1 Z76       0.417000
     49 HO3         -2.8610     1.3610     1.4820 ho         1 Z76       0.442000
     50 H5           1.2510     3.4180     0.8080 ha         1 Z76       0.116000
     51 H8           8.5170     0.1730     0.2810 h1         1 Z76       0.070700
     52 H9           5.4300     0.2310    -2.0980 h1         1 Z76       0.057700
     53 H9A          5.6880     1.9270    -1.6760 h1         1 Z76       0.057700
     54 H10          7.3240     0.7980    -3.5010 hc         1 Z76       0.053200
     55 H10A         8.0360     1.8030    -2.2370 hc         1 Z76       0.053200
     56 H11          9.2460    -0.2820    -1.9090 hc         1 Z76       0.058700
     57 H11A         7.8160    -1.2320    -2.2890 hc         1 Z76       0.058700
     58 H12          7.2260    -1.5960     1.3100 h1         1 Z76       0.037700
     59 H12A         8.3750    -2.2800     0.1590 h1         1 Z76       0.037700
     60 H14          3.2060     5.6960     1.3500 hc         1 Z76       0.045367
     61 H14A         2.1290     4.9830     2.5410 hc         1 Z76       0.045367
     62 H14B         3.8650     5.0610     2.8510 hc         1 Z76       0.045367
     63 H16         -0.9880     0.1500    -1.4170 h1         1 Z76       0.109700
     64 H17         -2.0260     2.2990    -1.0400 h1         1 Z76       0.086700
     65 H18         -1.6000    -0.4930     1.5100 hc         1 Z76       0.054200
     66 H18A        -2.3160    -1.2750     0.1060 hc         1 Z76       0.054200
     67 H20          0.7470    -0.9270     2.1460 ha         1 Z76       0.135000
     68 H22          2.8360    -4.0580     0.0920 ha         1 Z76       0.147000
     69 H24         -0.9780    -2.7360    -1.3570 ha         1 Z76       0.135000
     70 H25         -4.4420     2.7110    -1.6620 h1         1 Z76       0.078200
     71 H25A        -4.9480     2.3160    -0.0350 h1         1 Z76       0.078200
     72 H27         -6.6520     0.0910    -3.1520 h1         1 Z76       0.076200
     73 H27A        -5.5400     1.3710    -3.5890 h1         1 Z76       0.076200
     74 H28         -4.3540    -0.7450    -3.7820 h1         1 Z76       0.064700
     75 H28A        -4.8240    -1.2380    -2.1660 h1         1 Z76       0.064700
     76 H29         -3.9240     0.0460    -0.2720 h1         1 Z76       0.066700
     77 H32         -3.3970    -0.8490     3.7100 hc         1 Z76       0.047700
     78 H32A        -4.5380     0.4770     3.9300 hc         1 Z76       0.047700
     79 H32B        -4.8860    -1.1150     4.5970 hc         1 Z76       0.047700
     80 H34          5.2060    -3.8870    -0.5630 h1         1 Z76       0.027700
     81 H34A         6.8310    -4.2220     0.0530 h1         1 Z76       0.027700
     82 H34B         5.6410    -3.4130     1.0890 h1         1 Z76       0.027700
     83 H36         -5.7340    -3.7090     0.5250 ha         1 Z76       0.122000
     84 H37         -4.5770    -3.0480     2.5910 ha         1 Z76       0.119000
     85 H39         -5.8780     0.9850     2.0480 ha         1 Z76       0.137000
     86 S1          -7.1400     0.8320    -0.5310 sy         1 Z76       1.167600
     87 F2           0.9910    -4.3680    -1.7080 f          1 Z76      -0.172500
     88 O5           6.3950    -2.2530    -0.4630 os         1 Z76      -0.451000
     89 H35         -6.9270    -2.0320    -0.8300 ha         1 Z76       0.134000
     90 C32         -4.4570    -0.5920     3.7420 c3         1 Z76      -0.052800
@<TRIPOS>BOND
     1     1     5 ar  
     2     1    14 ar  
     3     1    45 1   
     4     2    30 1   
     5     3    16 1   
     6     3    18 1   
     7     3    19 1   
     8     4    16 2   
     9     5     8 ar  
    10     5    16 1   
    11     6    24 1   
    12     6    25 1   
    13     6    46 1   
    14     7    24 2   
    15     8    11 ar  
    16     8    47 1   
    17     9    36 1   
    18     9    37 1   
    19     9    48 1   
    20    10    26 1   
    21    10    49 1   
    22    11    13 ar  
    23    11    24 1   
    24    12    34 1   
    25    12    35 1   
    26    12    86 1   
    27    13    14 ar  
    28    13    50 1   
    29    14    23 1   
    30    15    86 2   
    31    17    86 2   
    32    18    21 1   
    33    18    22 1   
    34    18    51 1   
    35    19    20 1   
    36    19    52 1   
    37    19    53 1   
    38    20    21 1   
    39    20    54 1   
    40    20    55 1   
    41    21    56 1   
    42    21    57 1   
    43    22    58 1   
    44    22    59 1   
    45    22    88 1   
    46    23    60 1   
    47    23    61 1   
    48    23    62 1   
    49    25    26 1   
    50    25    27 1   
    51    25    63 1   
    52    26    37 1   
    53    26    64 1   
    54    27    28 1   
    55    27    65 1   
    56    27    66 1   
    57    28    29 ar  
    58    28    33 ar  
    59    29    30 ar  
    60    29    67 1   
    61    30    31 ar  
    62    31    32 ar  
    63    31    68 1   
    64    32    33 ar  
    65    32    87 1   
    66    33    69 1   
    67    34    37 1   
    68    34    70 1   
    69    34    71 1   
    70    35    36 1   
    71    35    72 1   
    72    35    73 1   
    73    36    74 1   
    74    36    75 1   
    75    37    76 1   
    76    38    80 1   
    77    38    81 1   
    78    38    82 1   
    79    38    88 1   
    80    39    40 ar  
    81    39    44 ar  
    82    39    89 1   
    83    40    41 ar  
    84    40    83 1   
    85    41    42 ar  
    86    41    84 1   
    87    42    43 ar  
    88    42    90 1   
    89    43    44 ar  
    90    43    85 1   
    91    44    86 1   
    92    77    90 1   
    93    78    90 1   
    94    79    90 1   
@<TRIPOS>SUBSTRUCTURE
     1 Z76         1 TEMP              0 ****  ****    0 ROOT
