@<TRIPOS>MOLECULE
Z76
   90    94     1     0     0
SMALL
No Charge or Current Charge


@<TRIPOS>ATOM
      1 C1           4.5870     1.7990     2.1970 ca         1 Z76      -0.048000
      2 F1           2.2890    -3.5960     2.6240 f          1 Z76      -0.172500
      3 N1           6.6570     0.6970    -0.7350 n          1 Z76      -0.399800
      4 O1           7.2020     0.7810     1.4930 o          1 Z76      -0.610100
      5 C2           4.8900     1.1100     1.0060 ca         1 Z76      -0.145600
      6 N2           0.0930     0.3970     0.1750 ns         1 Z76      -0.500900
      7 O2           1.6240    -0.3330    -1.3360 o          1 Z76      -0.594100
      8 C3           3.8300     0.6020     0.2220 ca         1 Z76      -0.037000
      9 N3          -3.2700     0.0270    -2.6430 n7         1 Z76      -0.846400
     10 O3          -2.5280     1.3440     0.8550 oh         1 Z76      -0.657000
     11 C4           2.4820     0.8070     0.5930 ca         1 Z76      -0.161600
     12 N4          -5.9490     1.0210    -1.8250 n3         1 Z76      -0.747500
     13 C5           2.2060     1.5240     1.7820 ca         1 Z76      -0.078000
     14 C6           3.2530     2.0120     2.5840 ca         1 Z76      -0.092300
     15 O6          -8.3320     0.6280    -1.0300 o          1 Z76      -0.531500
     16 C7           6.3390     0.8820     0.6270 c          1 Z76       0.619700
     17 O7          -6.7540    -1.3730    -1.3420 o          1 Z76      -0.531500
     18 C8           8.0260     0.2720    -1.1420 c5         1 Z76       0.113700
     19 C9           6.0130     1.5300    -1.7820 c5         1 Z76       0.105000
     20 C10          7.2200     1.9360    -2.6620 c5         1 Z76      -0.095400
     21 C11          8.0280     0.6200    -2.6590 c5         1 Z76      -0.089400
     22 C12          8.3360    -1.2270    -0.8620 c3         1 Z76       0.143600
     23 C14          2.9400     2.7730     3.8640 c3         1 Z76      -0.046800
     24 C15          1.3840     0.2380    -0.2810 c          1 Z76       0.617700
     25 C16         -1.1100    -0.1770    -0.4520 c3         1 Z76       0.088700
     26 C17         -2.2560     0.8840    -0.4870 c3         1 Z76       0.165300
     27 C18         -1.4940    -1.5150     0.2440 c3         1 Z76      -0.056100
     28 C19         -0.3360    -2.5050     0.3060 ca         1 Z76      -0.024300
     29 C20          0.4510    -2.6140     1.4700 ca         1 Z76      -0.164000
     30 C21          1.5360    -3.5040     1.5070 ca         1 Z76       0.205000
     31 C22          1.8450    -4.2950     0.3930 ca         1 Z76      -0.196000
     32 C23          1.0620    -4.1910    -0.7640 ca         1 Z76       0.205000
     33 C24         -0.0240    -3.3030    -0.8110 ca         1 Z76      -0.164000
     34 C25         -4.6890     1.5070    -1.1830 c6         1 Z76       0.170800
     35 C27         -5.6840     0.6040    -3.2350 c6         1 Z76       0.168800
     36 C28         -4.5060    -0.4250    -3.3520 c6         1 Z76       0.125800
     37 C29         -3.5620     0.4200    -1.2260 c6         1 Z76       0.099500
     38 C34          7.4830    -3.4630    -1.2330 c3         1 Z76       0.144900
     39 C35         -5.6240    -0.8080     1.3740 ca         1 Z76      -0.024000
     40 C36         -5.1690    -0.6510     2.6940 ca         1 Z76      -0.125000
     41 C37         -5.5250     0.4900     3.4330 ca         1 Z76      -0.061000
     42 C38         -6.3420     1.4810     2.8580 ca         1 Z76      -0.102300
     43 C39         -6.8010     1.3230     1.5350 ca         1 Z76      -0.027000
     44 C40         -6.4340     0.1860     0.7850 ca         1 Z76      -0.294500
     45 H1           5.3940     2.1820     2.8200 ha         1 Z76       0.129000
     46 HN2         -0.0300     0.9100     1.0370 hn         1 Z76       0.321500
     47 H3           4.0510     0.0160    -0.6670 ha         1 Z76       0.145000
     48 HN3         -2.9020     0.8480    -3.1420 hn         1 Z76       0.417000
     49 HO3         -3.0210     0.6340     1.3180 ho         1 Z76       0.442000
     50 H5           1.1840     1.7070     2.1020 ha         1 Z76       0.116000
     51 H8           8.7790     0.8780    -0.6200 h1         1 Z76       0.070700
     52 H9           5.2880     0.9400    -2.3570 h1         1 Z76       0.057700
     53 H9A          5.4990     2.4090    -1.3690 h1         1 Z76       0.057700
     54 H10          6.9180     2.2500    -3.6680 hc         1 Z76       0.053200
     55 H10A         7.7870     2.7590    -2.2120 hc         1 Z76       0.053200
     56 H11          9.0410     0.7440    -3.0570 hc         1 Z76       0.058700
     57 H11A         7.5300    -0.1490    -3.2630 hc         1 Z76       0.058700
     58 H12          8.3790    -1.3840     0.2240 h1         1 Z76       0.037700
     59 H12A         9.3210    -1.4720    -1.2800 h1         1 Z76       0.037700
     60 H14          2.7720     3.8360     3.6540 hc         1 Z76       0.045367
     61 H14A         2.0400     2.3810     4.3520 hc         1 Z76       0.045367
     62 H14B         3.7620     2.7000     4.5870 hc         1 Z76       0.045367
     63 H16         -0.8680    -0.4160    -1.4970 h1         1 Z76       0.109700
     64 H17         -1.8670     1.7320    -1.0690 h1         1 Z76       0.086700
     65 H18         -1.8590    -1.3100     1.2570 hc         1 Z76       0.054200
     66 H18A        -2.3300    -1.9780    -0.2930 hc         1 Z76       0.054200
     67 H20          0.2310    -2.0030     2.3410 ha         1 Z76       0.135000
     68 H22          2.6860    -4.9810     0.4260 ha         1 Z76       0.147000
     69 H24         -0.6150    -3.2280    -1.7210 ha         1 Z76       0.135000
     70 H25         -4.3230     2.3910    -1.7260 h1         1 Z76       0.078200
     71 H25A        -4.8560     1.8550    -0.1560 h1         1 Z76       0.078200
     72 H27         -6.5870     0.1850    -3.7040 h1         1 Z76       0.076200
     73 H27A        -5.4140     1.4890    -3.8300 h1         1 Z76       0.076200
     74 H28         -4.2800    -0.5980    -4.4150 h1         1 Z76       0.064700
     75 H28A        -4.8220    -1.3930    -2.9370 h1         1 Z76       0.064700
     76 H29         -3.9370    -0.4670    -0.7000 h1         1 Z76       0.066700
     77 H32         -5.9830     2.9490     4.4240 hc         1 Z76       0.047700
     78 H32A        -6.8320     3.5950     3.0150 hc         1 Z76       0.047700
     79 H32B        -7.6920     2.5600     4.1680 hc         1 Z76       0.047700
     80 H34          6.6690    -4.0240    -1.7080 h1         1 Z76       0.027700
     81 H34A         8.4330    -3.8100    -1.6610 h1         1 Z76       0.027700
     82 H34B         7.4780    -3.6950    -0.1600 h1         1 Z76       0.027700
     83 H36         -4.5440    -1.4170     3.1460 ha         1 Z76       0.122000
     84 H37         -5.1700     0.6000     4.4560 ha         1 Z76       0.119000
     85 H39         -7.4310     2.0920     1.0890 ha         1 Z76       0.137000
     86 S1          -7.0050     0.0100    -0.9230 sy         1 Z76       1.167600
     87 F2           1.3560    -4.9490    -1.8420 f          1 Z76      -0.172500
     88 O5           7.3100    -2.0540    -1.4510 os         1 Z76      -0.451000
     89 H35         -5.3420    -1.7000     0.8170 ha         1 Z76       0.134000
     90 C32         -6.7330     2.7130     3.6600 c3         1 Z76      -0.052800
@<TRIPOS>BOND
     1     1     5 ar  
     2     1    14 ar  
     3     1    45 1   
     4     2    30 1   
     5     3    16 1   
     6     3    18 1   
     7     3    19 1   
     8     4    16 2   
     9     5     8 ar  
    10     5    16 1   
    11     6    24 1   
    12     6    25 1   
    13     6    46 1   
    14     7    24 2   
    15     8    11 ar  
    16     8    47 1   
    17     9    36 1   
    18     9    37 1   
    19     9    48 1   
    20    10    26 1   
    21    10    49 1   
    22    11    13 ar  
    23    11    24 1   
    24    12    34 1   
    25    12    35 1   
    26    12    86 1   
    27    13    14 ar  
    28    13    50 1   
    29    14    23 1   
    30    15    86 2   
    31    17    86 2   
    32    18    21 1   
    33    18    22 1   
    34    18    51 1   
    35    19    20 1   
    36    19    52 1   
    37    19    53 1   
    38    20    21 1   
    39    20    54 1   
    40    20    55 1   
    41    21    56 1   
    42    21    57 1   
    43    22    58 1   
    44    22    59 1   
    45    22    88 1   
    46    23    60 1   
    47    23    61 1   
    48    23    62 1   
    49    25    26 1   
    50    25    27 1   
    51    25    63 1   
    52    26    37 1   
    53    26    64 1   
    54    27    28 1   
    55    27    65 1   
    56    27    66 1   
    57    28    29 ar  
    58    28    33 ar  
    59    29    30 ar  
    60    29    67 1   
    61    30    31 ar  
    62    31    32 ar  
    63    31    68 1   
    64    32    33 ar  
    65    32    87 1   
    66    33    69 1   
    67    34    37 1   
    68    34    70 1   
    69    34    71 1   
    70    35    36 1   
    71    35    72 1   
    72    35    73 1   
    73    36    74 1   
    74    36    75 1   
    75    37    76 1   
    76    38    80 1   
    77    38    81 1   
    78    38    82 1   
    79    38    88 1   
    80    39    40 ar  
    81    39    44 ar  
    82    39    89 1   
    83    40    41 ar  
    84    40    83 1   
    85    41    42 ar  
    86    41    84 1   
    87    42    43 ar  
    88    42    90 1   
    89    43    44 ar  
    90    43    85 1   
    91    44    86 1   
    92    77    90 1   
    93    78    90 1   
    94    79    90 1   
@<TRIPOS>SUBSTRUCTURE
     1 Z76         1 TEMP              0 ****  ****    0 ROOT
