@<TRIPOS>MOLECULE
Z77
   54    56     1     0     0
SMALL
bcc


@<TRIPOS>ATOM
      1 N1          -2.4580     0.9320    -0.1970 ns         1 Z77      -0.445100
      2 N2          -0.5150     2.0950     0.1340 n          1 Z77      -0.403800
      3 N3           3.1330     0.4720    -1.6020 ns         1 Z77      -0.435100
      4 CAA         -6.2480    -3.4280    -1.8480 c3         1 Z77       0.126700
      5 OAE         -1.2780     4.7090     1.0400 oh         1 Z77      -0.594800
      6 SAF         -0.9200     0.0290     1.7680 s          1 Z77      -0.671400
      7 CAG         -5.1620    -1.0020     1.4070 ca         1 Z77      -0.081000
      8 CAH         -4.1330    -0.0910     1.2600 ca         1 Z77      -0.139000
      9 CAI         -5.5620    -1.8300     0.3610 ca         1 Z77      -0.220000
     10 CAJ         -3.8560    -0.8300    -1.0180 ca         1 Z77      -0.192000
     11 CAK          4.0050    -1.5200     1.3340 ca         1 Z77      -0.057000
     12 CAL          4.6710    -1.3700    -1.3480 ca         1 Z77      -0.188000
     13 CAM          2.4040     0.3650     1.0170 cc         1 Z77       0.021800
     14 CAO         -0.9860     3.1670    -0.7400 c3         1 Z77       0.082000
     15 CAP          0.8020     2.2590     0.7420 c3         1 Z77       0.175200
     16 OAS         -5.2070    -2.4770    -1.9470 os         1 Z77      -0.319900
     17 CAT         -1.3080     1.0740     0.5110 cs         1 Z77       0.618400
     18 CAU          4.9400    -2.3980     0.8280 ca         1 Z77      -0.112300
     19 CAV          5.2730    -2.3190    -0.5450 ca         1 Z77      -0.016300
     20 CAW         -3.4710    -0.0180     0.0350 ca         1 Z77       0.098600
     21 CAX         -4.9080    -1.7360    -0.8630 ca         1 Z77       0.152100
     22 CAY          1.8230     1.2900     0.2200 cd         1 Z77      -0.236400
     23 CAZ          2.2050     1.3870    -1.1830 c          1 Z77       0.713700
     24 CBA          3.3850    -0.5520     0.5310 ca         1 Z77      -0.137800
     25 CBB          3.7320    -0.4810    -0.8210 ca         1 Z77       0.102600
     26 HN1         -2.5090     1.3810    -1.0980 hn         1 Z77       0.312500
     27 HN3          3.4070     0.5300    -2.5740 hn         1 Z77       0.325500
     28 HAA         -6.0350    -4.1900    -1.0940 h1         1 Z77       0.040700
     29 HAAA        -7.2080    -2.9610    -1.6150 h1         1 Z77       0.040700
     30 HAAB        -6.3210    -3.9090    -2.8210 h1         1 Z77       0.040700
     31 HAB          5.3290    -4.4390     1.4080 hc         1 Z77       0.041700
     32 HABA         6.6770    -3.3530     1.6800 hc         1 Z77       0.041700
     33 HABB         5.2780    -3.3000     2.7480 hc         1 Z77       0.041700
     34 HAC          7.2800    -3.0710    -0.7140 hc         1 Z77       0.046367
     35 HACA         6.0440    -4.2970    -0.9190 hc         1 Z77       0.046367
     36 HACB         6.3560    -3.1390    -2.2110 hc         1 Z77       0.046367
     37 HOAE        -1.9140     5.2280     1.5390 ho         1 Z77       0.409000
     38 HAG         -5.6820    -1.0670     2.3530 ha         1 Z77       0.133000
     39 HAH         -3.8490     0.5570     2.0760 ha         1 Z77       0.154000
     40 HAI         -6.3750    -2.5250     0.5180 ha         1 Z77       0.136000
     41 HAJ         -3.3390    -0.7730    -1.9680 ha         1 Z77       0.145000
     42 HAK          3.7330    -1.5700     2.3820 ha         1 Z77       0.139000
     43 HAL          4.9310    -1.3090    -2.3990 ha         1 Z77       0.135000
     44 HAM          2.1120     0.3050     2.0580 ha         1 Z77       0.158000
     45 HAN         -2.8450     3.5800     0.2740 h1         1 Z77       0.029200
     46 HANA        -2.2660     4.8590    -0.7900 h1         1 Z77       0.029200
     47 HAO         -0.1110     3.7120    -1.0820 h1         1 Z77       0.073700
     48 HAOA        -1.4430     2.7810    -1.6540 h1         1 Z77       0.073700
     49 HAP          1.1250     3.2790     0.5410 h1         1 Z77       0.079200
     50 HAPA         0.7230     2.1550     1.8230 h1         1 Z77       0.079200
     51 CAB          5.5880    -3.4220     1.7120 c3         1 Z77      -0.041800
     52 CAC          6.2870    -3.2550    -1.1310 c3         1 Z77      -0.053800
     53 OAD          1.7550     2.2190    -1.9650 o          1 Z77      -0.658500
     54 CAN         -1.9460     4.1160    -0.0490 c3         1 Z77       0.114400
@<TRIPOS>BOND
     1     1    17 1   
     2     1    20 1   
     3     1    26 1   
     4     2    14 1   
     5     2    15 1   
     6     2    17 1   
     7     3    23 1   
     8     3    25 1   
     9     3    27 1   
    10     4    16 1   
    11     4    28 1   
    12     4    29 1   
    13     4    30 1   
    14     5    37 1   
    15     5    54 1   
    16     6    17 2   
    17     7     8 ar  
    18     7     9 ar  
    19     7    38 1   
    20     8    20 ar  
    21     8    39 1   
    22     9    21 ar  
    23     9    40 1   
    24    10    20 ar  
    25    10    21 ar  
    26    10    41 1   
    27    11    18 ar  
    28    11    24 ar  
    29    11    42 1   
    30    12    19 ar  
    31    12    25 ar  
    32    12    43 1   
    33    13    22 2   
    34    13    24 1   
    35    13    44 1   
    36    14    47 1   
    37    14    48 1   
    38    14    54 1   
    39    15    22 1   
    40    15    49 1   
    41    15    50 1   
    42    16    21 1   
    43    18    19 ar  
    44    18    51 1   
    45    19    52 1   
    46    22    23 1   
    47    23    53 2   
    48    24    25 ar  
    49    31    51 1   
    50    32    51 1   
    51    33    51 1   
    52    34    52 1   
    53    35    52 1   
    54    36    52 1   
    55    45    54 1   
    56    46    54 1   
@<TRIPOS>SUBSTRUCTURE
     1 Z77         1 TEMP              0 ****  ****    0 ROOT
