@<TRIPOS>MOLECULE
Z77
   54    56     1     0     0
SMALL
No Charge or Current Charge


@<TRIPOS>ATOM
      1 N1          -2.4460     0.5370     0.1300 ns         1 Z77      -0.378100
      2 N2          -0.5280     1.7880    -0.0890 n          1 Z77      -0.336800
      3 N3           4.3580     1.5840     0.5770 ns         1 Z77      -0.368100
      4 CAA         -7.0670    -3.4270    -0.6230 c3         1 Z77       0.149900
      5 OAE         -1.0840     4.3700    -1.6030 oh         1 Z77      -0.657000
      6 SAF         -1.0180     0.7920     2.3920 s          1 Z77      -0.671400
      7 CAG         -5.3020    -0.7110     2.2210 ca         1 Z77      -0.063000
      8 CAH         -4.1540     0.0070     1.8460 ca         1 Z77      -0.121000
      9 CAI         -5.8990    -1.6090     1.3210 ca         1 Z77      -0.202000
     10 CAJ         -4.2020    -1.0600    -0.3340 ca         1 Z77      -0.174000
     11 CAK          3.3250    -1.8360    -0.3290 ca         1 Z77      -0.039000
     12 CAL          5.6850    -0.4300     0.2330 ca         1 Z77      -0.170000
     13 CAM          1.9740     0.2300     0.0230 cc         1 Z77      -0.028200
     14 CAO         -0.7420     1.9300    -1.5630 c3         1 Z77       0.082000
     15 CAP          0.7100     2.4400     0.4080 c3         1 Z77       0.175200
     16 OAS         -5.8940    -2.6410    -0.8990 os         1 Z77      -0.343100
     17 CAT         -1.3500     1.0660     0.7710 cs         1 Z77       0.484400
     18 CAU          4.5640    -2.5100    -0.3650 ca         1 Z77      -0.112300
     19 CAV          5.7560    -1.8010    -0.0820 ca         1 Z77      -0.016300
     20 CAW         -3.5860    -0.1760     0.5690 ca         1 Z77       0.098600
     21 CAX         -5.3480    -1.7820     0.0330 ca         1 Z77       0.152100
     22 CAY          1.9630     1.5880     0.3330 cd         1 Z77      -0.236400
     23 CAZ          3.2180     2.3370     0.6390 c          1 Z77       0.571200
     24 CBA          3.2630    -0.4660    -0.0140 ca         1 Z77      -0.137800
     25 CBB          4.4470     0.2250     0.2650 ca         1 Z77       0.102600
     26 HN1         -2.4640     0.7200    -0.8620 hn         1 Z77       0.312500
     27 HN3          5.2210     2.0700     0.7800 hn         1 Z77       0.325500
     28 HAA         -6.8940    -4.1020     0.2250 h1         1 Z77       0.040700
     29 HAAA        -7.9240    -2.7810    -0.3910 h1         1 Z77       0.040700
     30 HAAB        -7.3290    -4.0380    -1.4960 h1         1 Z77       0.040700
     31 HAB          5.1920    -4.1820    -1.6110 hc         1 Z77       0.041700
     32 HABA         5.0230    -4.5850     0.1080 hc         1 Z77       0.041700
     33 HABB         3.5880    -4.3920    -0.9030 hc         1 Z77       0.041700
     34 HAC          7.1560    -3.3130     0.6170 hc         1 Z77       0.046367
     35 HACA         7.3250    -2.9100    -1.1020 hc         1 Z77       0.046367
     36 HACB         7.9300    -1.8010     0.1320 hc         1 Z77       0.046367
     37 HOAE        -1.7170     5.0710    -1.8800 ho         1 Z77       0.448000
     38 HAG         -5.7330    -0.5640     3.2100 ha         1 Z77       0.115000
     39 HAH         -3.7280     0.7170     2.5470 ha         1 Z77       0.136000
     40 HAI         -6.7860    -2.1500     1.6350 ha         1 Z77       0.118000
     41 HAJ         -3.7850    -1.2000    -1.3270 ha         1 Z77       0.127000
     42 HAK          2.4080    -2.3780    -0.5460 ha         1 Z77       0.121000
     43 HAL          6.5940     0.1250     0.4530 ha         1 Z77       0.117000
     44 HAM          1.0500    -0.3030    -0.1840 ha         1 Z77       0.208000
     45 HAN         -2.6420     2.9850    -1.4820 h1         1 Z77       0.029200
     46 HANA        -1.8260     3.0710    -3.0530 h1         1 Z77       0.029200
     47 HAO          0.2310     2.0790    -2.0500 h1         1 Z77       0.073700
     48 HAOA        -1.1380     0.9960    -1.9820 h1         1 Z77       0.073700
     49 HAP          0.8780     3.3550    -0.1760 h1         1 Z77       0.079200
     50 HAPA         0.5630     2.7710     1.4440 h1         1 Z77       0.079200
     51 CAB          4.5930    -3.9970    -0.7110 c3         1 Z77      -0.041800
     52 CAC          7.1150    -2.4930    -0.1100 c3         1 Z77      -0.053800
     53 OAD          3.2620     3.5240     0.9260 o          1 Z77      -0.583000
     54 CAN         -1.6640     3.1090    -1.9680 c3         1 Z77       0.137600
@<TRIPOS>BOND
     1     1    17 1   
     2     1    20 1   
     3     1    26 1   
     4     2    14 1   
     5     2    15 1   
     6     2    17 1   
     7     3    23 1   
     8     3    25 1   
     9     3    27 1   
    10     4    16 1   
    11     4    28 1   
    12     4    29 1   
    13     4    30 1   
    14     5    37 1   
    15     5    54 1   
    16     6    17 2   
    17     7     8 ar  
    18     7     9 ar  
    19     7    38 1   
    20     8    20 ar  
    21     8    39 1   
    22     9    21 ar  
    23     9    40 1   
    24    10    20 ar  
    25    10    21 ar  
    26    10    41 1   
    27    11    18 ar  
    28    11    24 ar  
    29    11    42 1   
    30    12    19 ar  
    31    12    25 ar  
    32    12    43 1   
    33    13    22 2   
    34    13    24 1   
    35    13    44 1   
    36    14    47 1   
    37    14    48 1   
    38    14    54 1   
    39    15    22 1   
    40    15    49 1   
    41    15    50 1   
    42    16    21 1   
    43    18    19 ar  
    44    18    51 1   
    45    19    52 1   
    46    22    23 1   
    47    23    53 2   
    48    24    25 ar  
    49    31    51 1   
    50    32    51 1   
    51    33    51 1   
    52    34    52 1   
    53    35    52 1   
    54    36    52 1   
    55    45    54 1   
    56    46    54 1   
@<TRIPOS>SUBSTRUCTURE
     1 Z77         1 TEMP              0 ****  ****    0 ROOT
