@<TRIPOS>MOLECULE
Z78
   47    49     1     0     0
SMALL
No Charge or Current Charge


@<TRIPOS>ATOM
      1 N1           3.7670    -1.7540    -0.5090 ns         1 Z78      -0.369100
      2 N2          -0.7190    -1.3940     0.5660 n          1 Z78      -0.415800
      3 N3          -2.6050     0.0080     0.2150 ns         1 Z78      -0.152000
      4 CAA          5.4990     3.6850    -0.0470 c3         1 Z78      -0.041800
      5 OAB         -1.1220     0.4170     1.9260 o          1 Z78      -0.637100
      6 OAC          2.3270    -3.4510    -0.1530 o          1 Z78      -0.577000
      7 OAD         -3.2440    -3.0000     0.0200 oh         1 Z78      -0.681000
      8 CAF         -5.5950     3.0360     0.2670 ca         1 Z78      -0.113000
      9 CAG         -4.5990     3.0420     1.2560 ca         1 Z78      -0.105000
     10 CAH         -5.5920     2.0370    -0.7200 ca         1 Z78      -0.129000
     11 CAI         -3.5980     2.0530     1.2630 ca         1 Z78      -0.097000
     12 CAJ          5.8430     1.3070    -0.8720 ca         1 Z78      -0.056000
     13 CAK          5.4230    -0.0290    -0.9890 ca         1 Z78      -0.166000
     14 CAL          3.8330     1.8200     0.4040 ca         1 Z78      -0.045000
     15 CAM          2.1480     0.0480     0.8880 cc         1 Z78      -0.042200
     16 CAN         -1.9380    -3.4070    -0.4170 c3         1 Z78       0.136600
     17 CAO         -1.0350    -2.1760    -0.6650 c3         1 Z78       0.096000
     18 CAP          0.4780    -1.8130     1.3290 c3         1 Z78       0.179200
     19 CAS         -1.4710    -0.2640     0.9700 c          1 Z78       0.657100
     20 CAT          5.0500     2.2370    -0.1730 ca         1 Z78      -0.112300
     21 CAU         -4.5930     1.0500    -0.7140 ca         1 Z78       0.114000
     22 CAV          1.7680    -1.2810     0.7440 cd         1 Z78      -0.223400
     23 CAW         -3.5840     1.0420     0.2730 ca         1 Z78      -0.044000
     24 CAX          2.6100    -2.2720     0.0050 c          1 Z78       0.572200
     25 CAY          3.4110     0.4820     0.2880 ca         1 Z78      -0.132800
     26 CAZ          4.2110    -0.4330    -0.4090 ca         1 Z78       0.097600
     27 HN1          4.3550    -2.4030    -1.0150 hn         1 Z78       0.326500
     28 HN3         -2.7880    -0.6800    -0.5020 hn         1 Z78       0.183000
     29 HAA          5.0950     4.2920    -0.8660 hc         1 Z78       0.043033
     30 HAAA         5.1610     4.1280     0.8970 hc         1 Z78       0.043033
     31 HAAB         6.5920     3.7700    -0.0760 hc         1 Z78       0.043033
     32 HAF         -6.3680     3.8030     0.2650 ha         1 Z78       0.116000
     33 HAG         -4.6010     3.8150     2.0220 ha         1 Z78       0.116000
     34 HAH         -6.3590     2.0270    -1.4900 ha         1 Z78       0.127000
     35 HAI         -2.8480     2.0910     2.0460 ha         1 Z78       0.135000
     36 HAJ          6.7820     1.6180    -1.3250 ha         1 Z78       0.115000
     37 HAK          6.0390    -0.7440    -1.5300 ha         1 Z78       0.120000
     38 HAL          3.2170     2.5380     0.9410 ha         1 Z78       0.120000
     39 HAM          1.5130     0.7420     1.4340 ha         1 Z78       0.200000
     40 HAN         -1.4660    -4.0540     0.3350 h1         1 Z78       0.029700
     41 HAO         -1.4880    -1.5340    -1.4310 h1         1 Z78       0.078700
     42 HAOA        -0.0940    -2.5360    -1.0980 h1         1 Z78       0.078700
     43 HAP          0.3950    -1.4710     2.3690 h1         1 Z78       0.057700
     44 HAPA         0.4960    -2.9090     1.3790 h1         1 Z78       0.057700
     45 H19         -3.7630    -3.8210     0.1820 ho         1 Z78       0.456000
     46 H20         -2.0150    -3.9810    -1.3500 h1         1 Z78       0.029700
     47 FAE         -4.6050     0.0990    -1.6770 f          1 Z78      -0.186000
@<TRIPOS>BOND
     1     1    24 1   
     2     1    26 1   
     3     1    27 1   
     4     2    17 1   
     5     2    18 1   
     6     2    19 1   
     7     3    19 1   
     8     3    23 1   
     9     3    28 1   
    10     4    20 1   
    11     4    29 1   
    12     4    30 1   
    13     4    31 1   
    14     5    19 2   
    15     6    24 2   
    16     7    16 1   
    17     7    45 1   
    18     8     9 ar  
    19     8    10 ar  
    20     8    32 1   
    21     9    11 ar  
    22     9    33 1   
    23    10    21 ar  
    24    10    34 1   
    25    11    23 ar  
    26    11    35 1   
    27    12    13 ar  
    28    12    20 ar  
    29    12    36 1   
    30    13    26 ar  
    31    13    37 1   
    32    14    20 ar  
    33    14    25 ar  
    34    14    38 1   
    35    15    22 2   
    36    15    25 1   
    37    15    39 1   
    38    16    17 1   
    39    16    40 1   
    40    16    46 1   
    41    17    41 1   
    42    17    42 1   
    43    18    22 1   
    44    18    43 1   
    45    18    44 1   
    46    21    23 ar  
    47    21    47 1   
    48    22    24 1   
    49    25    26 ar  
@<TRIPOS>SUBSTRUCTURE
     1 Z78         1 TEMP              0 ****  ****    0 ROOT
