@<TRIPOS>MOLECULE
Z78
   47    49     1     0     0
SMALL
abcg2


@<TRIPOS>ATOM
      1 N1           3.2590    -0.9270    -1.3380 ns         1 Z78      -0.369100
      2 N2          -0.7740    -1.7090     0.2820 n          1 Z78      -0.415800
      3 N3          -2.6470    -0.4030    -0.1410 ns         1 Z78      -0.152000
      4 CAA          5.6220     3.5480     1.2420 c3         1 Z78      -0.041800
      5 OAB         -0.8720     0.4170     1.0380 o          1 Z78      -0.637100
      6 OAC          1.7700    -2.6120    -1.4730 o          1 Z78      -0.577000
      7 OAD         -3.3760    -3.1190     0.5910 oh         1 Z78      -0.681000
      8 CAF         -4.9060     3.1390    -0.2800 ca         1 Z78      -0.113000
      9 CAG         -3.5450     3.1780    -0.5490 ca         1 Z78      -0.105000
     10 CAH         -5.5040     1.9280     0.0380 ca         1 Z78      -0.129000
     11 CAI         -2.7800     2.0220    -0.5020 ca         1 Z78      -0.097000
     12 CAJ          5.4920     1.8940    -0.6590 ca         1 Z78      -0.056000
     13 CAK          4.9320     0.8150    -1.3080 ca         1 Z78      -0.166000
     14 CAL          3.9280     1.6920     1.1320 ca         1 Z78      -0.045000
     15 CAM          2.2120    -0.1110     1.0360 cc         1 Z78      -0.042200
     16 CAN         -2.1710    -3.7740     0.2570 c3         1 Z78       0.136600
     17 CAO         -1.2880    -2.8130    -0.5120 c3         1 Z78       0.096000
     18 CAP          0.4770    -1.9030     1.0020 c3         1 Z78       0.179200
     19 CAS         -1.3950    -0.5100     0.4380 c          1 Z78       0.657100
     20 CAT          5.0020     2.3550     0.5750 ca         1 Z78      -0.112300
     21 CAU         -4.7240     0.7930     0.0970 ca         1 Z78       0.114000
     22 CAV          1.6510    -1.1690     0.4130 cd         1 Z78      -0.223400
     23 CAW         -3.3560     0.7970    -0.1650 ca         1 Z78      -0.044000
     24 CAX          2.1970    -1.6420    -0.8550 c          1 Z78       0.572200
     25 CAY          3.3340     0.5920     0.4960 ca         1 Z78      -0.132800
     26 CAZ          3.8450     0.1550    -0.7320 ca         1 Z78       0.097600
     27 HN1          3.6450    -1.2430    -2.2180 hn         1 Z78       0.326500
     28 HN3         -3.2060    -1.2470    -0.1490 hn         1 Z78       0.183000
     29 HAA          5.2710     4.4780     0.7890 hc         1 Z78       0.043033
     30 HAAA         5.3740     3.5870     2.3010 hc         1 Z78       0.043033
     31 HAAB         6.7080     3.5370     1.1500 hc         1 Z78       0.043033
     32 HAF         -5.5040     4.0390    -0.3210 ha         1 Z78       0.116000
     33 HAG         -3.0710     4.1140    -0.8100 ha         1 Z78       0.116000
     34 HAH         -6.5640     1.8610     0.2470 ha         1 Z78       0.127000
     35 HAI         -1.7270     2.0720    -0.7370 ha         1 Z78       0.135000
     36 HAJ          6.3350     2.3980    -1.1150 ha         1 Z78       0.115000
     37 HAK          5.3310     0.4800    -2.2580 ha         1 Z78       0.120000
     38 HAL          3.5240     2.0150     2.0850 ha         1 Z78       0.120000
     39 HAM          1.8050     0.2260     1.9820 ha         1 Z78       0.200000
     40 HAN         -1.6400    -4.1210     1.1520 h1         1 Z78       0.029700
     41 HAO         -1.8190    -2.4280    -1.3860 h1         1 Z78       0.078700
     42 HAOA        -0.4340    -3.3620    -0.9010 h1         1 Z78       0.078700
     43 HAP          0.3590    -1.6020     2.0440 h1         1 Z78       0.057700
     44 HAPA         0.6800    -2.9750     1.0120 h1         1 Z78       0.057700
     45 H19         -3.8680    -3.6470     1.2250 ho         1 Z78       0.456000
     46 H20         -2.3510    -4.6540    -0.3730 h1         1 Z78       0.029700
     47 FAE         -5.3060    -0.3810     0.4100 f          1 Z78      -0.186000
@<TRIPOS>BOND
     1     1    24 1   
     2     1    26 1   
     3     1    27 1   
     4     2    17 1   
     5     2    18 1   
     6     2    19 1   
     7     3    19 1   
     8     3    23 1   
     9     3    28 1   
    10     4    20 1   
    11     4    29 1   
    12     4    30 1   
    13     4    31 1   
    14     5    19 2   
    15     6    24 2   
    16     7    16 1   
    17     7    45 1   
    18     8     9 ar  
    19     8    10 ar  
    20     8    32 1   
    21     9    11 ar  
    22     9    33 1   
    23    10    21 ar  
    24    10    34 1   
    25    11    23 ar  
    26    11    35 1   
    27    12    13 ar  
    28    12    20 ar  
    29    12    36 1   
    30    13    26 ar  
    31    13    37 1   
    32    14    20 ar  
    33    14    25 ar  
    34    14    38 1   
    35    15    22 2   
    36    15    25 1   
    37    15    39 1   
    38    16    17 1   
    39    16    40 1   
    40    16    46 1   
    41    17    41 1   
    42    17    42 1   
    43    18    22 1   
    44    18    43 1   
    45    18    44 1   
    46    21    23 ar  
    47    21    47 1   
    48    22    24 1   
    49    25    26 ar  
@<TRIPOS>SUBSTRUCTURE
     1 Z78         1 TEMP              0 ****  ****    0 ROOT
