@<TRIPOS>MOLECULE
Z79
   29    29     1     0     0
SMALL
No Charge or Current Charge


@<TRIPOS>ATOM
      1 O4           2.9720     2.2000    -0.7180 o          1 Z79      -0.565100
      2 C8           3.4990     1.2760    -0.1050 c          1 Z79       0.605100
      3 N2           4.8840     1.1510    -0.0040 ns         1 Z79      -0.387400
      4 O5           5.7680     1.9480    -0.8320 oh         1 Z79      -0.411100
      5 C7           2.6780     0.1730     0.6310 c3         1 Z79       0.114800
      6 N1           1.3100    -0.0680     0.0670 n7         1 Z79      -0.854300
      7 S1           0.2950    -1.1190     0.8660 sy         1 Z79       1.160600
      8 O1           0.5130    -2.4320     0.2560 o          1 Z79      -0.532000
      9 O2           0.4630    -0.8590     2.2980 o          1 Z79      -0.532000
     10 C3          -1.2740    -0.4540     0.3130 ca         1 Z79      -0.365500
     11 C6          -1.7770    -0.8130    -0.9530 ca         1 Z79       0.024500
     12 C5          -3.0060    -0.2920    -1.3890 ca         1 Z79      -0.198000
     13 C4          -3.7380     0.5850    -0.5760 ca         1 Z79       0.200100
     14 O3          -4.9390     1.0620    -1.0620 os         1 Z79      -0.332100
     15 C9          -5.7670     1.9650    -0.3080 c3         1 Z79       0.144900
     16 C2          -3.2330     0.9450     0.6920 ca         1 Z79      -0.198000
     17 C1          -2.0050     0.4270     1.1360 ca         1 Z79       0.024500
     18 HN2          5.2830     0.2990     0.3900 hn         1 Z79       0.343500
     19 HO5          6.4150     2.3240    -0.1890 ho         1 Z79       0.443000
     20 H7           3.2660    -0.7540     0.5970 h1         1 Z79       0.068700
     21 H7A          2.6270     0.4830     1.6840 h1         1 Z79       0.068700
     22 HN1          0.7610     0.7920     0.0730 hn         1 Z79       0.506000
     23 H6          -1.2210    -1.4910    -1.6010 ha         1 Z79       0.135500
     24 H5          -3.3930    -0.5690    -2.3660 ha         1 Z79       0.129500
     25 H9          -6.6700     2.2170    -0.8780 h1         1 Z79       0.048033
     26 H9A         -6.0800     1.5090     0.6400 h1         1 Z79       0.048033
     27 H9B         -5.2310     2.8980    -0.0920 h1         1 Z79       0.048033
     28 H2          -3.7770     1.6210     1.3440 ha         1 Z79       0.129500
     29 H1          -1.6300     0.7150     2.1180 ha         1 Z79       0.135500
@<TRIPOS>BOND
     1     1     2 2   
     2     2     3 1   
     3     2     5 1   
     4     3     4 1   
     5     3    18 1   
     6     4    19 1   
     7     5     6 1   
     8     5    20 1   
     9     5    21 1   
    10     6     7 1   
    11     6    22 1   
    12     7     8 2   
    13     7     9 2   
    14     7    10 1   
    15    10    11 ar  
    16    10    17 ar  
    17    11    12 ar  
    18    11    23 1   
    19    12    13 ar  
    20    12    24 1   
    21    13    14 1   
    22    13    16 ar  
    23    14    15 1   
    24    15    25 1   
    25    15    26 1   
    26    15    27 1   
    27    16    17 ar  
    28    16    28 1   
    29    17    29 1   
@<TRIPOS>SUBSTRUCTURE
     1 Z79         1 TEMP              0 ****  ****    0 ROOT
