@<TRIPOS>MOLECULE
Z79
   29    29     1     0     0
SMALL
abcg2


@<TRIPOS>ATOM
      1 O4           3.2030     0.6570    -1.5820 o          1 Z79      -0.565100
      2 C8           3.0790     0.9030    -0.3970 c          1 Z79       0.605100
      3 N2           3.8430     1.7600     0.2900 ns         1 Z79      -0.387400
      4 O5           4.9020     2.3650    -0.3080 oh         1 Z79      -0.411100
      5 C7           1.9660     0.2970     0.4430 c3         1 Z79       0.114800
      6 N1           1.6410    -1.0020    -0.1120 n7         1 Z79      -0.854300
      7 S1           0.3290    -1.8000     0.4870 sy         1 Z79       1.160600
      8 O1           0.2120    -3.0130    -0.3050 o          1 Z79      -0.532000
      9 O2           0.5100    -1.8790     1.9270 o          1 Z79      -0.532000
     10 C3          -1.0780    -0.7860     0.1710 ca         1 Z79      -0.365500
     11 C6          -1.6350    -0.7710    -1.1070 ca         1 Z79       0.024500
     12 C5          -2.7160     0.0400    -1.3720 ca         1 Z79      -0.198000
     13 C4          -3.2590     0.8470    -0.3630 ca         1 Z79       0.200100
     14 O3          -4.3090     1.5950    -0.7100 os         1 Z79      -0.332100
     15 C9          -4.9150     2.4200     0.2710 c3         1 Z79       0.144900
     16 C2          -2.6960     0.8270     0.9130 ca         1 Z79      -0.198000
     17 C1          -1.6070     0.0100     1.1750 ca         1 Z79       0.024500
     18 HN2          3.7970     1.8570     1.2940 hn         1 Z79       0.343500
     19 HO5          4.5860     3.2240    -0.6200 ho         1 Z79       0.443000
     20 H7           2.2690     0.1920     1.4850 h1         1 Z79       0.068700
     21 H7A          1.1200     0.9980     0.4150 h1         1 Z79       0.068700
     22 HN1          1.6850    -1.0280    -1.1270 hn         1 Z79       0.506000
     23 H6          -1.2360    -1.3930    -1.8980 ha         1 Z79       0.135500
     24 H5          -3.1550     0.0540    -2.3610 ha         1 Z79       0.129500
     25 H9          -5.7460     2.9190    -0.2210 h1         1 Z79       0.048033
     26 H9A         -5.2990     1.8360     1.1100 h1         1 Z79       0.048033
     27 H9B         -4.2220     3.1750     0.6490 h1         1 Z79       0.048033
     28 H2          -3.0910     1.4350     1.7140 ha         1 Z79       0.129500
     29 H1          -1.1870     0.0000     2.1710 ha         1 Z79       0.135500
@<TRIPOS>BOND
     1     1     2 2   
     2     2     3 1   
     3     2     5 1   
     4     3     4 1   
     5     3    18 1   
     6     4    19 1   
     7     5     6 1   
     8     5    20 1   
     9     5    21 1   
    10     6     7 1   
    11     6    22 1   
    12     7     8 2   
    13     7     9 2   
    14     7    10 1   
    15    10    11 ar  
    16    10    17 ar  
    17    11    12 ar  
    18    11    23 1   
    19    12    13 ar  
    20    12    24 1   
    21    13    14 1   
    22    13    16 ar  
    23    14    15 1   
    24    15    25 1   
    25    15    26 1   
    26    15    27 1   
    27    16    17 ar  
    28    16    28 1   
    29    17    29 1   
@<TRIPOS>SUBSTRUCTURE
     1 Z79         1 TEMP              0 ****  ****    0 ROOT
