@<TRIPOS>MOLECULE
Z7D
   52    55     1     0     0
SMALL
bcc


@<TRIPOS>ATOM
      1 C1          -7.8640    23.4300    16.7330 ca         1 Z7D      -0.185500
      2 C2          -8.7370    22.5780    16.0620 ca         1 Z7D       0.148100
      3 C3          -8.5150    22.3070    14.7160 ca         1 Z7D      -0.185500
      4 C4          -7.4490    22.9030    14.0590 ca         1 Z7D      -0.078500
      5 C5          -6.5830    23.7800    14.7050 ca         1 Z7D      -0.121300
      6 C6          -6.8120    24.0210    16.0600 ca         1 Z7D      -0.078500
      7 O7          -9.7460    22.0610    16.7930 os         1 Z7D      -0.318900
      8 C8          -5.5090    24.5140    13.9340 c5         1 Z7D      -0.055900
      9 S9          -6.3350    25.8390    12.9770 sy         1 Z7D       1.051300
     10 C10         -7.3150    26.7030    14.1740 ca         1 Z7D      -0.271500
     11 C11         -6.7510    27.7600    14.8740 ca         1 Z7D      -0.002500
     12 C12         -7.4970    28.4140    15.8410 ca         1 Z7D      -0.195000
     13 C13         -8.7910    27.9900    16.0760 ca         1 Z7D       0.187900
     14 C14         -9.3700    26.9430    15.3820 ca         1 Z7D      -0.195000
     15 C15         -8.6200    26.2920    14.4180 ca         1 Z7D      -0.002500
     16 O16         -7.2420    25.2190    12.0110 o          1 Z7D      -0.590800
     17 O17         -5.3190    26.7630    12.4660 o          1 Z7D      -0.590800
     18 F18         -9.5120    28.6160    17.0100 f          1 Z7D      -0.135900
     19 C19         -4.3740    25.0790    14.7920 c5         1 Z7D      -0.059900
     20 C20         -3.5350    23.8350    15.1040 c5         1 Z7D      -0.068900
     21 C21         -3.7390    22.8930    13.8960 c5         1 Z7D      -0.068900
     22 C22         -4.7270    23.6120    12.9640 c5         1 Z7D      -0.059900
     23 C23        -10.8330    21.4460    16.1250 c3         1 Z7D       0.185700
     24 C24        -11.6090    22.4060    15.2600 ca         1 Z7D      -0.130300
     25 C25        -12.1170    21.9880    14.0360 ca         1 Z7D      -0.112500
     26 C26        -12.8590    22.8540    13.2430 ca         1 Z7D      -0.130000
     27 C27        -13.0910    24.1550    13.6660 ca         1 Z7D      -0.116000
     28 C28        -12.5840    24.5810    14.8880 ca         1 Z7D      -0.130000
     29 C29        -11.8500    23.7110    15.6820 ca         1 Z7D      -0.112500
     30 H1          -8.0240    23.6440    17.7820 ha         1 Z7D       0.145000
     31 H3          -9.1600    21.6460    14.1530 ha         1 Z7D       0.145000
     32 H4          -7.3210    22.6770    13.0100 ha         1 Z7D       0.140500
     33 H6          -6.1770    24.6930    16.6210 ha         1 Z7D       0.140500
     34 H11         -5.7380    28.0840    14.6770 ha         1 Z7D       0.161000
     35 H12         -7.0790    29.2430    16.3970 ha         1 Z7D       0.155000
     36 H14        -10.3860    26.6390    15.5930 ha         1 Z7D       0.155000
     37 H15         -9.0560    25.4670    13.8710 ha         1 Z7D       0.161000
     38 H191        -3.7880    25.7760    14.1920 hc         1 Z7D       0.059950
     39 H192        -4.6980    25.6210    15.6790 hc         1 Z7D       0.059950
     40 H202        -3.8770    23.3610    16.0240 hc         1 Z7D       0.046950
     41 H201        -2.4890    24.1010    15.2540 hc         1 Z7D       0.046950
     42 H212        -4.1530    21.9380    14.2190 hc         1 Z7D       0.046950
     43 H211        -2.8050    22.6770    13.3790 hc         1 Z7D       0.046950
     44 H221        -5.3540    22.9280    12.3980 hc         1 Z7D       0.059950
     45 H222        -4.1850    24.2300    12.2440 hc         1 Z7D       0.059950
     46 H232       -11.4660    21.0600    16.9250 h1         1 Z7D       0.062200
     47 H231       -10.5020    20.5810    15.5390 h1         1 Z7D       0.062200
     48 H25        -11.9290    20.9770    13.6920 ha         1 Z7D       0.134500
     49 H26        -13.2480    22.5150    12.2920 ha         1 Z7D       0.133000
     50 H27        -13.6650    24.8350    13.0490 ha         1 Z7D       0.134000
     51 H28        -12.7680    25.5930    15.2260 ha         1 Z7D       0.133000
     52 H29        -11.4620    24.0560    16.6330 ha         1 Z7D       0.134500
@<TRIPOS>BOND
     1     1     2 ar  
     2     1     6 ar  
     3     1    30 1   
     4     2     3 ar  
     5     2     7 1   
     6     3     4 ar  
     7     3    31 1   
     8     4     5 ar  
     9     4    32 1   
    10     5     6 ar  
    11     5     8 1   
    12     6    33 1   
    13     7    23 1   
    14     8     9 1   
    15     8    19 1   
    16     8    22 1   
    17     9    10 1   
    18     9    16 2   
    19     9    17 2   
    20    10    11 ar  
    21    10    15 ar  
    22    11    12 ar  
    23    11    34 1   
    24    12    13 ar  
    25    12    35 1   
    26    13    14 ar  
    27    13    18 1   
    28    14    15 ar  
    29    14    36 1   
    30    15    37 1   
    31    19    20 1   
    32    19    38 1   
    33    19    39 1   
    34    20    21 1   
    35    20    40 1   
    36    20    41 1   
    37    21    22 1   
    38    21    42 1   
    39    21    43 1   
    40    22    44 1   
    41    22    45 1   
    42    23    24 1   
    43    23    46 1   
    44    23    47 1   
    45    24    25 ar  
    46    24    29 ar  
    47    25    26 ar  
    48    25    48 1   
    49    26    27 ar  
    50    26    49 1   
    51    27    28 ar  
    52    27    50 1   
    53    28    29 ar  
    54    28    51 1   
    55    29    52 1   
@<TRIPOS>SUBSTRUCTURE
     1 Z7D         1 TEMP              0 ****  ****    0 ROOT
