@<TRIPOS>MOLECULE
Z7D
   52    55     1     0     0
SMALL
No Charge or Current Charge


@<TRIPOS>ATOM
      1 C1          -7.8210    23.1680    16.7010 ca         1 Z7D      -0.167500
      2 C2          -8.6560    22.3010    15.9890 ca         1 Z7D       0.147100
      3 C3          -8.4320    22.1070    14.6140 ca         1 Z7D      -0.167500
      4 C4          -7.3940    22.7950    13.9640 ca         1 Z7D      -0.060500
      5 C5          -6.5480    23.6870    14.6640 ca         1 Z7D      -0.121300
      6 C6          -6.7900    23.8650    16.0500 ca         1 Z7D      -0.060500
      7 O7          -9.6830    21.6820    16.6720 os         1 Z7D      -0.342100
      8 C8          -5.4770    24.5070    13.8790 c5         1 Z7D      -0.166700
      9 S9          -6.2680    25.8560    12.8240 sy         1 Z7D       1.020500
     10 C10         -7.3780    26.7470    13.9330 ca         1 Z7D      -0.271500
     11 C11         -6.9430    27.9180    14.5870 ca         1 Z7D       0.015500
     12 C12         -7.8070    28.5840    15.4740 ca         1 Z7D      -0.177000
     13 C13         -9.0940    28.0790    15.7100 ca         1 Z7D       0.223000
     14 C14         -9.5280    26.9120    15.0670 ca         1 Z7D      -0.177000
     15 C15         -8.6730    26.2410    14.1780 ca         1 Z7D       0.015500
     16 O16         -7.1020    25.1880    11.8150 o          1 Z7D      -0.520000
     17 O17         -5.2090    26.7850    12.4040 o          1 Z7D      -0.520000
     18 F18         -9.9190    28.7200    16.5660 f          1 Z7D      -0.171000
     19 C19         -4.3560    25.0980    14.8020 c5         1 Z7D      -0.059900
     20 C20         -3.5730    23.8290    15.2590 c5         1 Z7D      -0.068900
     21 C21         -3.7650    22.7970    14.0970 c5         1 Z7D      -0.068900
     22 C22         -4.5830    23.5600    13.0130 c5         1 Z7D      -0.059900
     23 C23        -10.8690    21.2020    16.0060 c3         1 Z7D       0.208900
     24 C24        -11.5990    22.3840    15.3650 ca         1 Z7D      -0.130300
     25 C25        -11.8520    22.4040    13.9780 ca         1 Z7D      -0.094500
     26 C26        -12.5070    23.5020    13.3930 ca         1 Z7D      -0.112000
     27 C27        -12.9190    24.5830    14.1890 ca         1 Z7D      -0.098000
     28 C28        -12.6760    24.5660    15.5720 ca         1 Z7D      -0.112000
     29 C29        -12.0180    23.4710    16.1580 ca         1 Z7D      -0.094500
     30 H1          -7.9920    23.3260    17.7630 ha         1 Z7D       0.127000
     31 H3          -9.0540    21.4340    14.0330 ha         1 Z7D       0.127000
     32 H4          -7.2730    22.6460    12.8940 ha         1 Z7D       0.122500
     33 H6          -6.2010    24.5540    16.6450 ha         1 Z7D       0.122500
     34 H11         -5.9420    28.3130    14.4170 ha         1 Z7D       0.143000
     35 H12         -7.4790    29.4870    15.9810 ha         1 Z7D       0.137000
     36 H14        -10.5250    26.5260    15.2610 ha         1 Z7D       0.137000
     37 H15         -9.0150    25.3290    13.6920 ha         1 Z7D       0.143000
     38 H191        -3.6810    25.7520    14.2370 hc         1 Z7D       0.059950
     39 H192        -4.7220    25.7130    15.6300 hc         1 Z7D       0.059950
     40 H202        -3.9660    23.4310    16.2010 hc         1 Z7D       0.046950
     41 H201        -2.5150    24.0560    15.4330 hc         1 Z7D       0.046950
     42 H212        -4.3120    21.9140    14.4520 hc         1 Z7D       0.046950
     43 H211        -2.8090    22.4360    13.7030 hc         1 Z7D       0.046950
     44 H221        -5.1390    22.8850    12.3560 hc         1 Z7D       0.059950
     45 H222        -3.9110    24.1330    12.3610 hc         1 Z7D       0.059950
     46 H232       -11.5390    20.7280    16.7340 h1         1 Z7D       0.062200
     47 H231       -10.6210    20.4430    15.2530 h1         1 Z7D       0.062200
     48 H25        -11.5380    21.5730    13.3500 ha         1 Z7D       0.116500
     49 H26        -12.6960    23.5130    12.3210 ha         1 Z7D       0.115000
     50 H27        -13.4260    25.4320    13.7350 ha         1 Z7D       0.116000
     51 H28        -12.9950    25.4030    16.1910 ha         1 Z7D       0.115000
     52 H29        -11.8270    23.4690    17.2290 ha         1 Z7D       0.116500
@<TRIPOS>BOND
     1     1     2 ar  
     2     1     6 ar  
     3     1    30 1   
     4     2     3 ar  
     5     2     7 1   
     6     3     4 ar  
     7     3    31 1   
     8     4     5 ar  
     9     4    32 1   
    10     5     6 ar  
    11     5     8 1   
    12     6    33 1   
    13     7    23 1   
    14     8     9 1   
    15     8    19 1   
    16     8    22 1   
    17     9    10 1   
    18     9    16 2   
    19     9    17 2   
    20    10    11 ar  
    21    10    15 ar  
    22    11    12 ar  
    23    11    34 1   
    24    12    13 ar  
    25    12    35 1   
    26    13    14 ar  
    27    13    18 1   
    28    14    15 ar  
    29    14    36 1   
    30    15    37 1   
    31    19    20 1   
    32    19    38 1   
    33    19    39 1   
    34    20    21 1   
    35    20    40 1   
    36    20    41 1   
    37    21    22 1   
    38    21    42 1   
    39    21    43 1   
    40    22    44 1   
    41    22    45 1   
    42    23    24 1   
    43    23    46 1   
    44    23    47 1   
    45    24    25 ar  
    46    24    29 ar  
    47    25    26 ar  
    48    25    48 1   
    49    26    27 ar  
    50    26    49 1   
    51    27    28 ar  
    52    27    50 1   
    53    28    29 ar  
    54    28    51 1   
    55    29    52 1   
@<TRIPOS>SUBSTRUCTURE
     1 Z7D         1 TEMP              0 ****  ****    0 ROOT
