@<TRIPOS>MOLECULE
Z7F
   75    80     1     0     0
SMALL
bcc


@<TRIPOS>ATOM
      1 C1         -23.0120    -9.0040   -23.3850 ca         1 Z7F       0.141100
      2 C2         -22.7170    -8.6000   -24.6840 ca         1 Z7F      -0.210000
      3 C3         -23.3270    -7.4690   -25.1980 ca         1 Z7F      -0.075000
      4 C4         -24.2220    -6.7080   -24.4500 ca         1 Z7F      -0.116300
      5 C5         -24.4870    -7.1060   -23.1340 ca         1 Z7F      -0.025300
      6 C6         -23.8830    -8.2400   -22.6170 ca         1 Z7F      -0.162000
      7 C7         -24.9780    -5.5630   -25.0810 c5         1 Z7F      -0.045900
      8 C8         -25.5980    -4.5430   -24.0720 c5         1 Z7F       0.140700
      9 C9         -25.2180    -4.8200   -22.6210 c6         1 Z7F      -0.092400
     10 C10        -25.4010    -6.2850   -22.2770 c6         1 Z7F      -0.038100
     11 C11        -24.1460    -4.6960   -26.0510 c5         1 Z7F      -0.074400
     12 C12        -23.8330    -3.4630   -25.2270 c5         1 Z7F       0.114000
     13 N1         -25.0730    -3.2590   -24.5090 n          1 Z7F      -0.487800
     14 S1         -26.3190    -6.3160   -26.1130 sy         1 Z7F       1.039300
     15 O1         -22.4820   -10.0890   -22.7840 os         1 Z7F      -0.314900
     16 O2         -25.6650    -7.1060   -27.1540 o          1 Z7F      -0.587800
     17 O3         -27.2490    -5.2660   -26.5290 o          1 Z7F      -0.587800
     18 C13        -27.1850    -7.4180   -25.0310 ca         1 Z7F      -0.275500
     19 C14        -28.3430    -6.9800   -24.3990 ca         1 Z7F      -0.001000
     20 C15        -28.9960    -7.8170   -23.5100 ca         1 Z7F      -0.197500
     21 C16        -28.4660    -9.0730   -23.2760 ca         1 Z7F       0.183900
     22 C17        -27.3270    -9.5310   -23.9140 ca         1 Z7F      -0.197500
     23 C18        -26.6830    -8.6950   -24.8070 ca         1 Z7F      -0.001000
     24 F1         -29.0770    -9.8790   -22.4060 f          1 Z7F      -0.138900
     25 C19        -21.9910   -11.1570   -23.5730 c3         1 Z7F       0.197700
     26 C20        -23.0370   -11.7240   -24.4980 ca         1 Z7F      -0.165300
     27 C21        -22.8320   -11.8160   -25.8690 ca         1 Z7F       0.159900
     28 C22        -23.7730   -12.2990   -26.7550 ca         1 Z7F      -0.167000
     29 C23        -24.9900   -12.7280   -26.2530 ca         1 Z7F      -0.083000
     30 C24        -25.2440   -12.6820   -24.8900 ca         1 Z7F      -0.149000
     31 C25        -24.2700   -12.1890   -24.0370 ca         1 Z7F       0.066400
     32 C26        -25.6500    -2.0930   -24.1380 c          1 Z7F       0.686100
     33 O4         -26.7110    -2.0850   -23.5270 o          1 Z7F      -0.613100
     34 C27        -24.9010    -0.8170   -24.4720 c6         1 Z7F      -0.130700
     35 C28        -25.8020     0.4120   -24.4380 c6         1 Z7F      -0.068900
     36 C29        -25.0090     1.6750   -24.7600 c6         1 Z7F      -0.054400
     37 C30        -23.8310     1.8750   -23.8070 c6         1 Z7F      -0.192700
     38 C31        -22.9440     0.6340   -23.8030 c6         1 Z7F      -0.054400
     39 C32        -23.7300    -0.6340   -23.4960 c6         1 Z7F      -0.068900
     40 CL1        -24.6120   -12.1760   -22.3410 cl         1 Z7F      -0.087400
     41 F2         -21.6540   -11.4090   -26.3660 f          1 Z7F      -0.139900
     42 C33        -23.0600     3.1890   -24.0860 c          1 Z7F       0.931600
     43 O5         -21.8160     3.1590   -23.9920 o          1 Z7F      -0.840800
     44 O6         -23.7520     4.1920   -24.3600 o          1 Z7F      -0.840800
     45 H1         -22.0150    -9.1350   -25.3060 ha         1 Z7F       0.142000
     46 H2         -23.0920    -7.1970   -26.2170 ha         1 Z7F       0.148000
     47 H3         -24.0970    -8.5450   -21.5990 ha         1 Z7F       0.147000
     48 H4         -26.6870    -4.5270   -24.1430 h1         1 Z7F       0.077700
     49 H6         -24.1740    -4.5370   -22.4570 hc         1 Z7F       0.066700
     50 H5         -25.8290    -4.1890   -21.9760 hc         1 Z7F       0.066700
     51 H8         -26.4430    -6.5850   -22.4230 hc         1 Z7F       0.055200
     52 H7         -25.1810    -6.4600   -21.2230 hc         1 Z7F       0.055200
     53 H9         -24.7270    -4.3910   -26.9230 hc         1 Z7F       0.067200
     54 H10        -23.2520    -5.1960   -26.4090 hc         1 Z7F       0.067200
     55 H11        -23.0030    -3.6510   -24.5380 h1         1 Z7F       0.060700
     56 H12        -23.5680    -2.6140   -25.8510 h1         1 Z7F       0.060700
     57 H13        -28.7420    -5.9930   -24.5890 ha         1 Z7F       0.164000
     58 H14        -29.8970    -7.4960   -23.0060 ha         1 Z7F       0.154000
     59 H15        -26.9490   -10.5240   -23.7120 ha         1 Z7F       0.154000
     60 H16        -25.7940    -9.0440   -25.3150 ha         1 Z7F       0.164000
     61 H17        -21.6800   -11.9160   -22.8550 h1         1 Z7F       0.070700
     62 H18        -21.1000   -10.8590   -24.1280 h1         1 Z7F       0.070700
     63 H19        -23.5550   -12.3370   -27.8140 ha         1 Z7F       0.159000
     64 H20        -25.7460   -13.1090   -26.9260 ha         1 Z7F       0.143000
     65 H21        -26.1870   -13.0320   -24.4950 ha         1 Z7F       0.153000
     66 H22        -24.4860    -0.8930   -25.4840 hc         1 Z7F       0.055700
     67 H23        -26.2530     0.5120   -23.4470 hc         1 Z7F       0.030700
     68 H24        -26.6260     0.2980   -25.1480 hc         1 Z7F       0.030700
     69 H26        -24.6370     1.6150   -25.7900 hc         1 Z7F       0.043200
     70 H25        -25.6690     2.5420   -24.7210 hc         1 Z7F       0.043200
     71 H27        -24.2540     1.9780   -22.7950 hc         1 Z7F       0.027700
     72 H29        -22.4600     0.5260   -24.7800 hc         1 Z7F       0.043200
     73 H28        -22.1410     0.7440   -23.0730 hc         1 Z7F       0.043200
     74 H30        -24.1290    -0.5860   -22.4760 hc         1 Z7F       0.030700
     75 H31        -23.0620    -1.4980   -23.5260 hc         1 Z7F       0.030700
@<TRIPOS>BOND
     1     1     2 ar  
     2     1     6 ar  
     3     1    15 1   
     4     2     3 ar  
     5     2    45 1   
     6     3     4 ar  
     7     3    46 1   
     8     4     5 ar  
     9     4     7 1   
    10     5     6 ar  
    11     5    10 1   
    12     6    47 1   
    13     7     8 1   
    14     7    11 1   
    15     7    14 1   
    16     8     9 1   
    17     8    13 1   
    18     8    48 1   
    19     9    10 1   
    20     9    49 1   
    21     9    50 1   
    22    10    51 1   
    23    10    52 1   
    24    11    12 1   
    25    11    53 1   
    26    11    54 1   
    27    12    13 1   
    28    12    55 1   
    29    12    56 1   
    30    13    32 1   
    31    14    16 2   
    32    14    17 2   
    33    14    18 1   
    34    15    25 1   
    35    18    19 ar  
    36    18    23 ar  
    37    19    20 ar  
    38    19    57 1   
    39    20    21 ar  
    40    20    58 1   
    41    21    22 ar  
    42    21    24 1   
    43    22    23 ar  
    44    22    59 1   
    45    23    60 1   
    46    25    26 1   
    47    25    61 1   
    48    25    62 1   
    49    26    27 ar  
    50    26    31 ar  
    51    27    28 ar  
    52    27    41 1   
    53    28    29 ar  
    54    28    63 1   
    55    29    30 ar  
    56    29    64 1   
    57    30    31 ar  
    58    30    65 1   
    59    31    40 1   
    60    32    33 2   
    61    32    34 1   
    62    34    35 1   
    63    34    39 1   
    64    34    66 1   
    65    35    36 1   
    66    35    67 1   
    67    35    68 1   
    68    36    37 1   
    69    36    69 1   
    70    36    70 1   
    71    37    38 1   
    72    37    42 1   
    73    37    71 1   
    74    38    39 1   
    75    38    72 1   
    76    38    73 1   
    77    39    74 1   
    78    39    75 1   
    79    42    43 1   
    80    42    44 1   
@<TRIPOS>SUBSTRUCTURE
     1 Z7F         1 TEMP              0 ****  ****    0 ROOT
