@<TRIPOS>MOLECULE
Z7F
   75    80     1     0     0
SMALL
No Charge or Current Charge


@<TRIPOS>ATOM
      1 C1         -22.7970    -9.4420   -23.3990 ca         1 Z7F       0.141100
      2 C2         -22.5540    -9.0190   -24.7160 ca         1 Z7F      -0.192000
      3 C3         -23.0060    -7.7620   -25.1450 ca         1 Z7F      -0.057000
      4 C4         -23.7140    -6.9000   -24.2770 ca         1 Z7F      -0.116300
      5 C5         -23.8970    -7.3140   -22.9320 ca         1 Z7F      -0.025300
      6 C6         -23.4450    -8.5770   -22.5090 ca         1 Z7F      -0.144000
      7 C7         -24.2740    -5.5570   -24.8260 c5         1 Z7F      -0.156700
      8 C8         -24.9230    -4.6780   -23.6990 c5         1 Z7F       0.140700
      9 C9         -24.3460    -4.9240   -22.2920 c6         1 Z7F      -0.092400
     10 C10        -24.5590    -6.3950   -21.9120 c6         1 Z7F      -0.038100
     11 C11        -23.0610    -4.6910   -25.2910 c5         1 Z7F      -0.074400
     12 C12        -23.6320    -3.2530   -25.2670 c5         1 Z7F       0.114000
     13 N1         -24.6010    -3.2980   -24.1450 n          1 Z7F      -0.420800
     14 S1         -25.5650    -5.8240   -26.1840 sy         1 Z7F       1.008500
     15 O1         -22.3990   -10.6760   -22.9300 os         1 Z7F      -0.338100
     16 O2         -24.8940    -6.4860   -27.3110 o          1 Z7F      -0.517000
     17 O3         -26.2830    -4.5600   -26.4010 o          1 Z7F      -0.517000
     18 C13        -26.7450    -7.0030   -25.4960 ca         1 Z7F      -0.275500
     19 C14        -27.9350    -6.5470   -24.8900 ca         1 Z7F       0.017000
     20 C15        -28.8270    -7.4710   -24.3200 ca         1 Z7F      -0.179500
     21 C16        -28.5310    -8.8410   -24.3510 ca         1 Z7F       0.219000
     22 C17        -27.3500    -9.2990   -24.9500 ca         1 Z7F      -0.179500
     23 C18        -26.4530    -8.3830   -25.5250 ca         1 Z7F       0.017000
     24 F1         -29.3890    -9.7260   -23.7980 f          1 Z7F      -0.174000
     25 C19        -22.2170   -11.8160   -23.7950 c3         1 Z7F       0.220900
     26 C20        -23.5530   -12.1920   -24.4450 ca         1 Z7F      -0.165300
     27 C21        -23.7050   -12.1540   -25.8490 ca         1 Z7F       0.195000
     28 C22        -24.9260   -12.4950   -26.4510 ca         1 Z7F      -0.149000
     29 C23        -26.0160   -12.8910   -25.6610 ca         1 Z7F      -0.065000
     30 C24        -25.8750   -12.9460   -24.2660 ca         1 Z7F      -0.131000
     31 C25        -24.6550   -12.6030   -23.6590 ca         1 Z7F       0.158000
     32 C26        -25.4050    -2.1970   -23.7680 c          1 Z7F       0.619100
     33 O4         -26.3510    -2.3580   -23.0050 o          1 Z7F      -0.613100
     34 C27        -25.0040    -0.7660   -24.2200 c6         1 Z7F      -0.130700
     35 C28        -26.1970     0.2170   -24.3850 c6         1 Z7F      -0.068900
     36 C29        -25.7180     1.5980   -24.8990 c6         1 Z7F      -0.054400
     37 C30        -24.6060     2.1930   -23.9860 c6         1 Z7F      -0.192700
     38 C31        -23.4080     1.2070   -23.8630 c6         1 Z7F      -0.054400
     39 C32        -23.8630    -0.1800   -23.3430 c6         1 Z7F      -0.068900
     40 Cl1        -24.5400   -12.7270   -21.9030 cl         1 Z7F      -0.179000
     41 F2         -22.6700   -11.8040   -26.6440 f          1 Z7F      -0.175000
     42 C33        -24.1580     3.6010   -24.4540 c          1 Z7F       0.721000
     43 O5         -23.6440     3.7130   -25.5570 o          1 Z7F      -0.735500
     44 O6         -24.3390     4.5410   -23.6940 o          1 Z7F      -0.735500
     45 H1         -22.0110    -9.6450   -25.4160 ha         1 Z7F       0.124000
     46 H2         -22.8090    -7.4650   -26.1720 ha         1 Z7F       0.130000
     47 H3         -23.6020    -8.8960   -21.4830 ha         1 Z7F       0.129000
     48 H4         -26.0090    -4.8390   -23.6440 h1         1 Z7F       0.077700
     49 H6         -23.2750    -4.6810   -22.2680 hc         1 Z7F       0.066700
     50 H5         -24.8380    -4.2710   -21.5600 hc         1 Z7F       0.066700
     51 H8         -25.6330    -6.6210   -21.8560 hc         1 Z7F       0.055200
     52 H7         -24.1460    -6.5770   -20.9100 hc         1 Z7F       0.055200
     53 H9         -22.6740    -4.9690   -26.2790 hc         1 Z7F       0.067200
     54 H10        -22.2240    -4.7750   -24.5870 hc         1 Z7F       0.067200
     55 H11        -22.8370    -2.5140   -25.1000 h1         1 Z7F       0.060700
     56 H12        -24.1370    -3.0040   -26.2100 h1         1 Z7F       0.060700
     57 H13        -28.1720    -5.4840   -24.8540 ha         1 Z7F       0.146000
     58 H14        -29.7450    -7.1270   -23.8510 ha         1 Z7F       0.136000
     59 H15        -27.1290   -10.3610   -24.9660 ha         1 Z7F       0.136000
     60 H16        -25.5350    -8.7490   -25.9820 ha         1 Z7F       0.146000
     61 H17        -21.8610   -12.6720   -23.2070 h1         1 Z7F       0.070700
     62 H18        -21.4450   -11.6150   -24.5480 h1         1 Z7F       0.070700
     63 H19        -25.0230   -12.4570   -27.5330 ha         1 Z7F       0.141000
     64 H20        -26.9620   -13.1590   -26.1270 ha         1 Z7F       0.125000
     65 H21        -26.7140   -13.2610   -23.6490 ha         1 Z7F       0.135000
     66 H22        -24.5400    -0.8750   -25.2070 hc         1 Z7F       0.055700
     67 H23        -26.7120     0.3450   -23.4230 hc         1 Z7F       0.030700
     68 H24        -26.9340    -0.2020   -25.0830 hc         1 Z7F       0.030700
     69 H26        -25.3440     1.4970   -25.9280 hc         1 Z7F       0.043200
     70 H25        -26.5710     2.2890   -24.9460 hc         1 Z7F       0.043200
     71 H27        -25.0360     2.3170   -22.9820 hc         1 Z7F       0.027700
     72 H29        -22.9170     1.0890   -24.8390 hc         1 Z7F       0.043200
     73 H28        -22.6510     1.6230   -23.1840 hc         1 Z7F       0.043200
     74 H30        -24.2100    -0.0880   -22.3040 hc         1 Z7F       0.030700
     75 H31        -23.0060    -0.8660   -23.3240 hc         1 Z7F       0.030700
@<TRIPOS>BOND
     1     1     2 ar  
     2     1     6 ar  
     3     1    15 1   
     4     2     3 ar  
     5     2    45 1   
     6     3     4 ar  
     7     3    46 1   
     8     4     5 ar  
     9     4     7 1   
    10     5     6 ar  
    11     5    10 1   
    12     6    47 1   
    13     7     8 1   
    14     7    11 1   
    15     7    14 1   
    16     8     9 1   
    17     8    13 1   
    18     8    48 1   
    19     9    10 1   
    20     9    49 1   
    21     9    50 1   
    22    10    51 1   
    23    10    52 1   
    24    11    12 1   
    25    11    53 1   
    26    11    54 1   
    27    12    13 1   
    28    12    55 1   
    29    12    56 1   
    30    13    32 1   
    31    14    16 2   
    32    14    17 2   
    33    14    18 1   
    34    15    25 1   
    35    18    19 ar  
    36    18    23 ar  
    37    19    20 ar  
    38    19    57 1   
    39    20    21 ar  
    40    20    58 1   
    41    21    22 ar  
    42    21    24 1   
    43    22    23 ar  
    44    22    59 1   
    45    23    60 1   
    46    25    26 1   
    47    25    61 1   
    48    25    62 1   
    49    26    27 ar  
    50    26    31 ar  
    51    27    28 ar  
    52    27    41 1   
    53    28    29 ar  
    54    28    63 1   
    55    29    30 ar  
    56    29    64 1   
    57    30    31 ar  
    58    30    65 1   
    59    31    40 1   
    60    32    33 2   
    61    32    34 1   
    62    34    35 1   
    63    34    39 1   
    64    34    66 1   
    65    35    36 1   
    66    35    67 1   
    67    35    68 1   
    68    36    37 1   
    69    36    69 1   
    70    36    70 1   
    71    37    38 1   
    72    37    42 1   
    73    37    71 1   
    74    38    39 1   
    75    38    72 1   
    76    38    73 1   
    77    39    74 1   
    78    39    75 1   
    79    42    43 1   
    80    42    44 1   
@<TRIPOS>SUBSTRUCTURE
     1 Z7F         1 TEMP              0 ****  ****    0 ROOT
