@<TRIPOS>MOLECULE
Z7G
   40    41     1     0     0
SMALL
No Charge or Current Charge


@<TRIPOS>ATOM
      1 C3          -7.5920    26.3960    13.7650 ca         1 Z7G       0.112100
      2 O4          -8.7990    25.7500    13.6020 os         1 Z7G      -0.234200
      3 C5          -7.4610    27.4440    14.7010 ca         1 Z7G       0.107000
      4 C6          -6.4820    26.0140    12.9860 ca         1 Z7G       0.107000
      5 C7          -9.2870    24.8470    14.5220 ca         1 Z7G       0.099100
      6 C8          -6.2250    28.0950    14.8590 ca         1 Z7G      -0.086000
      7 Cl1         -8.8320    27.9670    15.6830 cl         1 Z7G      -0.167500
      8 C9          -5.2480    26.6670    13.1480 ca         1 Z7G      -0.086000
      9 Cl2         -6.6160    24.7070    11.8090 cl         1 Z7G      -0.167500
     10 C10        -10.6460    24.5050    14.4650 ca         1 Z7G      -0.095000
     11 C11         -8.4590    24.2600    15.4960 ca         1 Z7G      -0.138000
     12 C12         -5.1120    27.7110    14.0840 ca         1 Z7G      -0.072300
     13 C13        -11.2050    23.5850    15.3800 ca         1 Z7G      -0.069300
     14 C14         -8.9970    23.3430    16.4140 ca         1 Z7G      -0.166000
     15 C15         -3.7740    28.4160    14.2590 c3         1 Z7G       0.209900
     16 C16        -10.3690    23.0000    16.3660 ca         1 Z7G       0.114100
     17 C17        -12.7030    23.2470    15.2840 c3         1 Z7G      -0.007400
     18 O18         -2.9930    27.7510    15.2580 oh         1 Z7G      -0.656000
     19 O19        -10.9160    22.0990    17.2640 os         1 Z7G      -0.344100
     20 C20        -13.0440    22.5750    13.9340 c3         1 Z7G      -0.085600
     21 C21        -13.5810    24.4930    15.5360 c3         1 Z7G      -0.085600
     22 C22        -10.1410    21.4610    18.2940 c3         1 Z7G       0.148900
     23 H1          -6.1320    28.8990    15.5850 ha         1 Z7G       0.141000
     24 H2          -4.3960    26.3590    12.5460 ha         1 Z7G       0.141000
     25 H3         -11.2680    24.9650    13.7030 ha         1 Z7G       0.133000
     26 H4          -7.4010    24.5030    15.5490 ha         1 Z7G       0.124000
     27 H5          -8.3320    22.9080    17.1540 ha         1 Z7G       0.117000
     28 H6          -3.9490    29.4620    14.5460 h1         1 Z7G       0.032200
     29 H7          -3.2390    28.4250    13.2990 h1         1 Z7G       0.032200
     30 H8         -12.9760    22.5220    16.0590 hc         1 Z7G       0.063700
     31 H9          -2.1460    28.2440    15.3300 ho         1 Z7G       0.450000
     32 H10        -12.4240    21.6830    13.7830 hc         1 Z7G       0.035033
     33 H11        -14.0960    22.2650    13.9130 hc         1 Z7G       0.035033
     34 H12        -12.8730    23.2580    13.0940 hc         1 Z7G       0.035033
     35 H13        -13.3370    24.9430    16.5060 hc         1 Z7G       0.035033
     36 H14        -13.4310    25.2520    14.7590 hc         1 Z7G       0.035033
     37 H15        -14.6430    24.2210    15.5460 hc         1 Z7G       0.035033
     38 H16        -10.7760    20.7910    18.8860 h1         1 Z7G       0.039033
     39 H17         -9.3300    20.8630    17.8590 h1         1 Z7G       0.039033
     40 H18         -9.7060    22.2050    18.9740 h1         1 Z7G       0.039033
@<TRIPOS>BOND
     1     1     2 1   
     2     1     3 ar  
     3     1     4 ar  
     4     2     5 1   
     5     3     6 ar  
     6     3     7 1   
     7     4     8 ar  
     8     4     9 1   
     9     5    10 ar  
    10     5    11 ar  
    11     6    12 ar  
    12     6    23 1   
    13     8    12 ar  
    14     8    24 1   
    15    10    13 ar  
    16    10    25 1   
    17    11    14 ar  
    18    11    26 1   
    19    12    15 1   
    20    13    16 ar  
    21    13    17 1   
    22    14    16 ar  
    23    14    27 1   
    24    15    18 1   
    25    15    28 1   
    26    15    29 1   
    27    16    19 1   
    28    17    20 1   
    29    17    21 1   
    30    17    30 1   
    31    18    31 1   
    32    19    22 1   
    33    20    32 1   
    34    20    33 1   
    35    20    34 1   
    36    21    35 1   
    37    21    36 1   
    38    21    37 1   
    39    22    38 1   
    40    22    39 1   
    41    22    40 1   
@<TRIPOS>SUBSTRUCTURE
     1 Z7G         1 TEMP              0 ****  ****    0 ROOT
