@<TRIPOS>MOLECULE
Z7G
   40    41     1     0     0
SMALL
bcc


@<TRIPOS>ATOM
      1 C3          -7.7070    26.6600    14.1070 ca         1 Z7G       0.112100
      2 O4          -8.9800    26.2170    14.0090 os         1 Z7G      -0.234200
      3 C5          -7.3700    27.6750    14.9960 ca         1 Z7G       0.015400
      4 C6          -6.7030    26.1370    13.3030 ca         1 Z7G       0.015400
      5 C7          -9.3880    25.1860    14.8250 ca         1 Z7G       0.099100
      6 C8          -6.0800    28.1680    15.0630 ca         1 Z7G      -0.104000
      7 CL1         -8.5980    28.3160    16.0210 cl         1 Z7G      -0.075900
      8 C9          -5.4070    26.6230    13.3540 ca         1 Z7G      -0.104000
      9 CL2         -7.1040    24.8620    12.2130 cl         1 Z7G      -0.075900
     10 C10        -10.7200    24.8080    14.7010 ca         1 Z7G      -0.113000
     11 C11         -8.5630    24.5410    15.7220 ca         1 Z7G      -0.156000
     12 C12         -5.0890    27.6460    14.2390 ca         1 Z7G      -0.072300
     13 C13        -11.2540    23.7810    15.4620 ca         1 Z7G      -0.069300
     14 C14         -9.0820    23.5070    16.4970 ca         1 Z7G      -0.184000
     15 C15         -3.7050    28.2340    14.2910 c3         1 Z7G       0.186700
     16 C16        -10.4090    23.1210    16.3740 ca         1 Z7G       0.114100
     17 C17        -12.6920    23.3360    15.2960 c3         1 Z7G      -0.007400
     18 O18         -2.7710    27.3000    13.8180 oh         1 Z7G      -0.593800
     19 O19        -10.9670    22.1220    17.0920 os         1 Z7G      -0.320900
     20 C20        -12.7560    22.0900    14.4070 c3         1 Z7G      -0.085600
     21 C21        -13.6100    24.4230    14.7450 c3         1 Z7G      -0.085600
     22 C22        -10.1670    21.4270    18.0250 c3         1 Z7G       0.125700
     23 H1          -5.8460    28.9560    15.7670 ha         1 Z7G       0.159000
     24 H2          -4.6540    26.1960    12.7070 ha         1 Z7G       0.159000
     25 H3         -11.3440    25.3340    13.9900 ha         1 Z7G       0.151000
     26 H4          -7.5220    24.8140    15.8440 ha         1 Z7G       0.142000
     27 H5          -8.4170    23.0160    17.1940 ha         1 Z7G       0.135000
     28 H6          -3.4910    28.5410    15.3220 h1         1 Z7G       0.032200
     29 H7          -3.7020    29.1490    13.6860 h1         1 Z7G       0.032200
     30 H8         -13.0740    23.0640    16.2830 hc         1 Z7G       0.063700
     31 H9          -1.9380    27.7570    13.6720 ho         1 Z7G       0.411000
     32 H10        -12.1480    21.2760    14.8010 hc         1 Z7G       0.035033
     33 H11        -13.7830    21.7280    14.3270 hc         1 Z7G       0.035033
     34 H12        -12.4040    22.3190    13.4000 hc         1 Z7G       0.035033
     35 H13        -13.5740    25.3300    15.3500 hc         1 Z7G       0.035033
     36 H14        -13.3620    24.6910    13.7170 hc         1 Z7G       0.035033
     37 H15        -14.6410    24.0660    14.7440 hc         1 Z7G       0.035033
     38 H16        -10.8090    20.6790    18.4840 h1         1 Z7G       0.039033
     39 H17         -9.3250    20.9200    17.5460 h1         1 Z7G       0.039033
     40 H18         -9.7810    22.0860    18.8070 h1         1 Z7G       0.039033
@<TRIPOS>BOND
     1     1     2 1   
     2     1     3 ar  
     3     1     4 ar  
     4     2     5 1   
     5     3     6 ar  
     6     3     7 1   
     7     4     8 ar  
     8     4     9 1   
     9     5    10 ar  
    10     5    11 ar  
    11     6    12 ar  
    12     6    23 1   
    13     8    12 ar  
    14     8    24 1   
    15    10    13 ar  
    16    10    25 1   
    17    11    14 ar  
    18    11    26 1   
    19    12    15 1   
    20    13    16 ar  
    21    13    17 1   
    22    14    16 ar  
    23    14    27 1   
    24    15    18 1   
    25    15    28 1   
    26    15    29 1   
    27    16    19 1   
    28    17    20 1   
    29    17    21 1   
    30    17    30 1   
    31    18    31 1   
    32    19    22 1   
    33    20    32 1   
    34    20    33 1   
    35    20    34 1   
    36    21    35 1   
    37    21    36 1   
    38    21    37 1   
    39    22    38 1   
    40    22    39 1   
    41    22    40 1   
@<TRIPOS>SUBSTRUCTURE
     1 Z7G         1 TEMP              0 ****  ****    0 ROOT
