@<TRIPOS>MOLECULE
Z7H
   52    54     1     0     0
SMALL
bcc


@<TRIPOS>ATOM
      1 C3          61.0590    34.7820    12.9340 ca         1 Z7H      -0.198600
      2 C4          60.5820    35.0940    11.6670 ca         1 Z7H      -0.063000
      3 C5          60.3640    35.2970    14.0220 ca         1 Z7H       0.412200
      4 C6          62.2790    33.9400    13.1360 c3         1 Z7H      -0.107100
      5 C7          59.4530    35.8880    11.5460 ca         1 Z7H      -0.244300
      6 N8          59.2830    36.0600    13.9200 nb         1 Z7H      -0.664000
      7 C9          63.5620    34.7320    12.9500 c          1 Z7H       0.674100
      8 C10         58.8400    36.3480    12.7020 ca         1 Z7H       0.408200
      9 O11         63.6110    35.7620    12.3100 o          1 Z7H      -0.557100
     10 C12         72.3870    37.6050    15.5320 ca         1 Z7H      -0.070300
     11 C13         71.5630    38.1870    16.5100 ca         1 Z7H       0.116100
     12 C14         70.2060    37.8860    16.5400 ca         1 Z7H      -0.184000
     13 C15         69.6470    37.0080    15.6180 ca         1 Z7H      -0.155000
     14 C16         70.4570    36.4330    14.6590 ca         1 Z7H       0.096100
     15 C17         71.8110    36.7330    14.6210 ca         1 Z7H      -0.112000
     16 C19         68.6880    35.2460    13.6760 ca         1 Z7H       0.080100
     17 C20         67.7850    36.0060    12.9450 ca         1 Z7H       0.045900
     18 C21         66.4400    35.6860    12.8650 ca         1 Z7H      -0.164500
     19 C22         65.9690    34.5680    13.5520 ca         1 Z7H       0.094600
     20 C23         66.8600    33.7940    14.2980 ca         1 Z7H      -0.164500
     21 C24         68.1940    34.1410    14.3590 ca         1 Z7H       0.045900
     22 CL1         69.2850    33.1940    15.2950 cl         1 Z7H      -0.070400
     23 C26         74.2860    38.4170    14.0910 c3         1 Z7H      -0.084600
     24 C27         74.6810    36.6470    15.8370 c3         1 Z7H      -0.084600
     25 O28         72.1570    39.0270    17.3880 os         1 Z7H      -0.320900
     26 C29         71.3640    39.6440    18.3780 c3         1 Z7H       0.126700
     27 N30         64.6390    34.1530    13.5460 ns         1 Z7H      -0.476100
     28 H1          61.0790    34.7120    10.7840 ha         1 Z7H       0.140000
     29 H2          60.7020    35.0730    15.0300 h4         1 Z7H       0.014100
     30 H3          62.2630    33.4710    14.1220 hc         1 Z7H       0.069200
     31 H4          62.3000    33.1210    12.4100 hc         1 Z7H       0.069200
     32 H5          59.0510    36.1440    10.5760 ha         1 Z7H       0.145000
     33 H6          57.9550    36.9700    12.6410 h4         1 Z7H       0.021100
     34 H7          69.5520    38.3240    17.2810 ha         1 Z7H       0.135000
     35 H8          68.5870    36.7960    15.6760 ha         1 Z7H       0.141000
     36 H9          72.4280    36.2670    13.8600 ha         1 Z7H       0.150000
     37 H10         65.7820    36.3060    12.2800 ha         1 Z7H       0.167500
     38 H11         66.5080    32.9240    14.8380 ha         1 Z7H       0.167500
     39 H12         74.1080    38.6670    16.1940 hc         1 Z7H       0.067700
     40 H13         75.3400    38.6990    14.0970 hc         1 Z7H       0.034033
     41 H14         74.1560    37.6630    13.3120 hc         1 Z7H       0.034033
     42 H15         73.7060    39.2960    13.8060 hc         1 Z7H       0.034033
     43 H16         74.4090    36.2720    16.8240 hc         1 Z7H       0.034033
     44 H17         74.5190    35.8410    15.1170 hc         1 Z7H       0.034033
     45 H18         75.7480    36.8730    15.8450 hc         1 Z7H       0.034033
     46 H19         72.0330    40.2700    18.9640 h1         1 Z7H       0.039033
     47 H20         70.5830    40.2750    17.9450 h1         1 Z7H       0.039033
     48 H21         70.8950    38.9140    19.0440 h1         1 Z7H       0.039033
     49 H22         64.4570    33.3050    14.0620 hn         1 Z7H       0.319500
     50 CL2         68.3740    37.3920    12.1080 cl         1 Z7H      -0.070400
     51 O18         70.0050    35.5510    13.7030 os         1 Z7H      -0.228200
     52 C25         73.8720    37.8910    15.4650 c3         1 Z7H      -0.011400
@<TRIPOS>BOND
     1     1     2 ar  
     2     1     3 ar  
     3     1     4 1   
     4     2     5 ar  
     5     2    28 1   
     6     3     6 ar  
     7     3    29 1   
     8     4     7 1   
     9     4    30 1   
    10     4    31 1   
    11     5     8 ar  
    12     5    32 1   
    13     6     8 ar  
    14     7     9 2   
    15     7    27 1   
    16     8    33 1   
    17    10    11 ar  
    18    10    15 ar  
    19    10    52 1   
    20    11    12 ar  
    21    11    25 1   
    22    12    13 ar  
    23    12    34 1   
    24    13    14 ar  
    25    13    35 1   
    26    14    15 ar  
    27    14    51 1   
    28    15    36 1   
    29    16    17 ar  
    30    16    21 ar  
    31    16    51 1   
    32    17    18 ar  
    33    17    50 1   
    34    18    19 ar  
    35    18    37 1   
    36    19    20 ar  
    37    19    27 1   
    38    20    21 ar  
    39    20    38 1   
    40    21    22 1   
    41    23    40 1   
    42    23    41 1   
    43    23    42 1   
    44    23    52 1   
    45    24    43 1   
    46    24    44 1   
    47    24    45 1   
    48    24    52 1   
    49    25    26 1   
    50    26    46 1   
    51    26    47 1   
    52    26    48 1   
    53    27    49 1   
    54    39    52 1   
@<TRIPOS>SUBSTRUCTURE
     1 Z7H         1 TEMP              0 ****  ****    0 ROOT
