@<TRIPOS>MOLECULE
Z7H
   52    54     1     0     0
SMALL
No Charge or Current Charge


@<TRIPOS>ATOM
      1 C3          61.2910    34.5960    12.9990 ca         1 Z7H      -0.133300
      2 C4          60.3320    35.2790    12.2290 ca         1 Z7H      -0.045000
      3 C5          61.3160    34.8190    14.3930 ca         1 Z7H       0.346900
      4 C6          62.2900    33.6440    12.3400 c3         1 Z7H      -0.107100
      5 C7          59.4450    36.1470    12.8850 ca         1 Z7H      -0.161000
      6 N8          60.4630    35.6550    15.0280 nb         1 Z7H      -0.664000
      7 C9          63.6100    34.3620    12.0250 c          1 Z7H       0.607100
      8 C10         59.5430    36.3050    14.2770 ca         1 Z7H       0.342900
      9 O11         63.7090    35.1260    11.0720 o          1 Z7H      -0.557100
     10 C12         72.2640    37.6060    15.6470 ca         1 Z7H      -0.070300
     11 C13         71.3410    38.4370    16.3340 ca         1 Z7H       0.116100
     12 C14         69.9630    38.3550    16.0260 ca         1 Z7H      -0.166000
     13 C15         69.5020    37.4560    15.0500 ca         1 Z7H      -0.137000
     14 C16         70.4140    36.6270    14.3720 ca         1 Z7H       0.096100
     15 C17         71.7830    36.7090    14.6680 ca         1 Z7H      -0.094000
     16 C19         68.6910    35.3330    13.2760 ca         1 Z7H       0.080100
     17 C20         67.9150    35.8150    12.2050 ca         1 Z7H       0.137500
     18 C21         66.5750    35.4160    12.0630 ca         1 Z7H      -0.146500
     19 C22         65.9900    34.5240    12.9890 ca         1 Z7H       0.002000
     20 C23         66.7750    34.0410    14.0530 ca         1 Z7H      -0.146500
     21 C24         68.1150    34.4370    14.2000 ca         1 Z7H       0.137500
     22 Cl1         69.0550    33.7890    15.5450 cl         1 Z7H      -0.162000
     23 C26         74.5770    38.1030    14.7000 c3         1 Z7H      -0.084600
     24 C27         74.2850    36.3070    16.4960 c3         1 Z7H      -0.084600
     25 O28         71.8120    39.3160    17.2940 os         1 Z7H      -0.344100
     26 C29         70.9450    40.1930    18.0370 c3         1 Z7H       0.149900
     27 N30         64.6420    34.0770    12.9110 ns         1 Z7H      -0.150000
     28 H1          60.2770    35.1440    11.1500 ha         1 Z7H       0.122000
     29 H2          62.0470    34.3120    15.0230 h4         1 Z7H       0.014100
     30 H3          62.4780    32.8000    13.0150 hc         1 Z7H       0.069200
     31 H4          61.8700    33.2630    11.4010 hc         1 Z7H       0.069200
     32 H5          58.6890    36.6940    12.3280 ha         1 Z7H       0.127000
     33 H6          58.8660    36.9730    14.8090 h4         1 Z7H       0.021100
     34 H7          69.2330    38.9810    16.5320 ha         1 Z7H       0.117000
     35 H8          68.4390    37.4160    14.8270 ha         1 Z7H       0.123000
     36 H9          72.4720    36.0640    14.1310 ha         1 Z7H       0.132000
     37 H10         66.0130    35.8140    11.2250 ha         1 Z7H       0.149500
     38 H11         66.3480    33.3500    14.7760 ha         1 Z7H       0.149500
     39 H12         73.9810    38.4010    16.7200 hc         1 Z7H       0.067700
     40 H13         75.6400    38.2140    14.9480 hc         1 Z7H       0.034033
     41 H14         74.4920    37.3730    13.8860 hc         1 Z7H       0.034033
     42 H15         74.2120    39.0700    14.3350 hc         1 Z7H       0.034033
     43 H16         73.7150    36.0190    17.3880 hc         1 Z7H       0.034033
     44 H17         74.1870    35.5080    15.7520 hc         1 Z7H       0.034033
     45 H18         75.3420    36.3820    16.7790 hc         1 Z7H       0.034033
     46 H19         71.5310    40.7970    18.7400 h1         1 Z7H       0.039033
     47 H20         70.4120    40.8760    17.3640 h1         1 Z7H       0.039033
     48 H21         70.2100    39.6170    18.6140 h1         1 Z7H       0.039033
     49 H22         64.3870    33.4270    13.6440 hn         1 Z7H       0.153000
     50 Cl2         68.6050    36.9350    11.0310 cl         1 Z7H      -0.162000
     51 O18         70.0040    35.7320    13.4080 os         1 Z7H      -0.228200
     52 C25         73.7730    37.6560    15.9420 c3         1 Z7H      -0.011400
@<TRIPOS>BOND
     1     1     2 ar  
     2     1     3 ar  
     3     1     4 1   
     4     2     5 ar  
     5     2    28 1   
     6     3     6 ar  
     7     3    29 1   
     8     4     7 1   
     9     4    30 1   
    10     4    31 1   
    11     5     8 ar  
    12     5    32 1   
    13     6     8 ar  
    14     7     9 2   
    15     7    27 1   
    16     8    33 1   
    17    10    11 ar  
    18    10    15 ar  
    19    10    52 1   
    20    11    12 ar  
    21    11    25 1   
    22    12    13 ar  
    23    12    34 1   
    24    13    14 ar  
    25    13    35 1   
    26    14    15 ar  
    27    14    51 1   
    28    15    36 1   
    29    16    17 ar  
    30    16    21 ar  
    31    16    51 1   
    32    17    18 ar  
    33    17    50 1   
    34    18    19 ar  
    35    18    37 1   
    36    19    20 ar  
    37    19    27 1   
    38    20    21 ar  
    39    20    38 1   
    40    21    22 1   
    41    23    40 1   
    42    23    41 1   
    43    23    42 1   
    44    23    52 1   
    45    24    43 1   
    46    24    44 1   
    47    24    45 1   
    48    24    52 1   
    49    25    26 1   
    50    26    46 1   
    51    26    47 1   
    52    26    48 1   
    53    27    49 1   
    54    39    52 1   
@<TRIPOS>SUBSTRUCTURE
     1 Z7H         1 TEMP              0 ****  ****    0 ROOT
