@<TRIPOS>MOLECULE
Z7I
   63    65     1     0     0
SMALL
No Charge or Current Charge


@<TRIPOS>ATOM
      1 C1         -24.3290   -11.0500   -23.7380 ca         1 Z7I      -0.109300
      2 C2         -23.6710   -10.1240   -22.8830 ca         1 Z7I       0.562300
      3 N1         -23.8710    -8.7870   -22.9630 nb         1 Z7I      -0.735000
      4 C3         -24.7300    -8.3220   -23.8980 ca         1 Z7I       0.319900
      5 C4         -25.4270    -9.1640   -24.7940 ca         1 Z7I       0.039100
      6 C5         -25.2230   -10.5470   -24.7080 ca         1 Z7I      -0.067000
      7 C6         -24.0940   -12.5660   -23.6360 c3         1 Z7I      -0.004400
      8 O1         -26.3030    -8.6770   -25.7440 os         1 Z7I      -0.220200
      9 C7         -26.4430    -7.3290   -25.9980 ca         1 Z7I       0.074100
     10 C8         -27.5210    -6.6160   -25.4440 ca         1 Z7I       0.137000
     11 C9         -27.6650    -5.2420   -25.7010 ca         1 Z7I      -0.142500
     12 C10        -26.7420    -4.5610   -26.5170 ca         1 Z7I       0.000000
     13 C11        -25.6600    -5.2810   -27.0710 ca         1 Z7I      -0.142500
     14 C12        -25.5130    -6.6560   -26.8160 ca         1 Z7I       0.137000
     15 Cl1        -28.6980    -7.4260   -24.4110 cl         1 Z7I      -0.160500
     16 N2         -26.9500    -3.1700   -26.7280 ns         1 Z7I      -0.147000
     17 C13        -23.4720   -13.1280   -24.9340 c3         1 Z7I      -0.087100
     18 C14        -25.3940   -13.3130   -23.2600 c3         1 Z7I      -0.087100
     19 C15        -26.3090    -2.2420   -27.5390 c          1 Z7I       0.608100
     20 O2         -25.3980    -2.5120   -28.3120 o          1 Z7I      -0.572100
     21 C16        -26.8600    -0.8130   -27.4230 c3         1 Z7I      -0.155400
     22 C17        -25.8890     0.1730   -26.7020 c6         1 Z7I      -0.056700
     23 C18        -25.6020    -0.2410   -25.2330 c6         1 Z7I      -0.075400
     24 C19        -24.6790     0.7820   -24.5300 c6         1 Z7I       0.196300
     25 N3         -25.2470     2.1540   -24.5830 n3         1 Z7I      -0.726500
     26 C20        -25.4910     2.5950   -25.9800 c6         1 Z7I       0.196300
     27 C21        -26.4380     1.6220   -26.7220 c6         1 Z7I      -0.075400
     28 Cl2        -24.1490    -7.5170   -27.5280 cl         1 Z7I      -0.160500
     29 S1         -24.4480     3.3100   -23.5850 s6         1 Z7I       1.197100
     30 C22        -22.8150     3.4800   -24.2900 c3         1 Z7I      -0.382100
     31 O3         -24.3370     2.7110   -22.2510 o          1 Z7I      -0.530000
     32 O4         -25.1750     4.5740   -23.7410 o          1 Z7I      -0.530000
     33 O5         -22.7950   -10.6010   -21.9310 os         1 Z7I      -0.462300
     34 C23        -22.0970    -9.7140   -21.0350 c3         1 Z7I       0.159900
     35 H1         -24.8600    -7.2410   -23.9230 h4         1 Z7I       0.028100
     36 H2         -25.7510   -11.2130   -25.3860 ha         1 Z7I       0.139000
     37 H3         -23.3760   -12.7840   -22.8360 hc         1 Z7I       0.066700
     38 H4         -28.5030    -4.7070   -25.2600 ha         1 Z7I       0.150500
     39 H5         -24.9180    -4.7980   -27.6970 ha         1 Z7I       0.150500
     40 H6         -27.7010    -2.7810   -26.1720 hn         1 Z7I       0.156000
     41 H7         -23.2370   -14.1930   -24.8200 hc         1 Z7I       0.036533
     42 H8         -24.1560   -13.0190   -25.7840 hc         1 Z7I       0.036533
     43 H9         -22.5410   -12.5990   -25.1730 hc         1 Z7I       0.036533
     44 H10        -25.8090   -12.9140   -22.3270 hc         1 Z7I       0.036533
     45 H11        -26.1530   -13.2120   -24.0450 hc         1 Z7I       0.036533
     46 H12        -25.1960   -14.3820   -23.1130 hc         1 Z7I       0.036533
     47 H13        -27.0390    -0.4480   -28.4420 hc         1 Z7I       0.067700
     48 H14        -27.8160    -0.8310   -26.8840 hc         1 Z7I       0.067700
     49 H15        -24.9420     0.1540   -27.2630 hc         1 Z7I       0.068700
     50 H16        -26.5450    -0.3200   -24.6740 hc         1 Z7I       0.055450
     51 H17        -25.1310    -1.2330   -25.1970 hc         1 Z7I       0.055450
     52 H18        -24.5440     0.4550   -23.4880 h1         1 Z7I       0.056450
     53 H19        -23.6870     0.7550   -25.0060 h1         1 Z7I       0.056450
     54 H20        -24.5440     2.6650   -26.5360 h1         1 Z7I       0.056450
     55 H21        -25.9510     3.5950   -26.0000 h1         1 Z7I       0.056450
     56 H22        -26.5730     1.9620   -27.7570 hc         1 Z7I       0.055450
     57 H23        -27.4300     1.6550   -26.2500 hc         1 Z7I       0.055450
     58 H24        -22.2740     4.2110   -23.6800 h1         1 Z7I       0.100700
     59 H25        -22.3270     2.5020   -24.2530 h1         1 Z7I       0.100700
     60 H26        -22.9260     3.8350   -25.3190 h1         1 Z7I       0.100700
     61 H27        -21.4510   -10.2880   -20.3570 h1         1 Z7I       0.044700
     62 H28        -21.4640    -9.0110   -21.5920 h1         1 Z7I       0.044700
     63 H29        -22.8040    -9.1390   -20.4220 h1         1 Z7I       0.044700
@<TRIPOS>BOND
     1     1     2 ar  
     2     1     6 ar  
     3     1     7 1   
     4     2     3 ar  
     5     2    33 1   
     6     3     4 ar  
     7     4     5 ar  
     8     4    35 1   
     9     5     6 ar  
    10     5     8 1   
    11     6    36 1   
    12     7    17 1   
    13     7    18 1   
    14     7    37 1   
    15     8     9 1   
    16     9    10 ar  
    17     9    14 ar  
    18    10    11 ar  
    19    10    15 1   
    20    11    12 ar  
    21    11    38 1   
    22    12    13 ar  
    23    12    16 1   
    24    13    14 ar  
    25    13    39 1   
    26    14    28 1   
    27    16    19 1   
    28    16    40 1   
    29    17    41 1   
    30    17    42 1   
    31    17    43 1   
    32    18    44 1   
    33    18    45 1   
    34    18    46 1   
    35    19    20 2   
    36    19    21 1   
    37    21    22 1   
    38    21    47 1   
    39    21    48 1   
    40    22    23 1   
    41    22    27 1   
    42    22    49 1   
    43    23    24 1   
    44    23    50 1   
    45    23    51 1   
    46    24    25 1   
    47    24    52 1   
    48    24    53 1   
    49    25    26 1   
    50    25    29 1   
    51    26    27 1   
    52    26    54 1   
    53    26    55 1   
    54    27    56 1   
    55    27    57 1   
    56    29    30 1   
    57    29    31 2   
    58    29    32 2   
    59    30    58 1   
    60    30    59 1   
    61    30    60 1   
    62    33    34 1   
    63    34    61 1   
    64    34    62 1   
    65    34    63 1   
@<TRIPOS>SUBSTRUCTURE
     1 Z7I         1 TEMP              0 ****  ****    0 ROOT
