@<TRIPOS>MOLECULE
Z7I
   63    65     1     0     0
SMALL
abcg2


@<TRIPOS>ATOM
      1 C1         -24.2900   -10.9600   -23.9300 ca         1 Z7I      -0.109300
      2 C2         -23.6280   -10.0260   -23.1020 ca         1 Z7I       0.562300
      3 N1         -23.8620    -8.7390   -23.1270 nb         1 Z7I      -0.735000
      4 C3         -24.7770    -8.2500   -23.9660 ca         1 Z7I       0.319900
      5 C4         -25.4810    -9.0700   -24.8170 ca         1 Z7I       0.039100
      6 C5         -25.2280   -10.4400   -24.7940 ca         1 Z7I      -0.067000
      7 C6         -23.9930   -12.4380   -23.8340 c3         1 Z7I      -0.004400
      8 O1         -26.4370    -8.6320   -25.6980 os         1 Z7I      -0.220200
      9 C7         -26.5080    -7.3040   -25.9600 ca         1 Z7I       0.074100
     10 C8         -27.4760    -6.5110   -25.3560 ca         1 Z7I       0.137000
     11 C9         -27.5900    -5.1670   -25.6490 ca         1 Z7I      -0.142500
     12 C10        -26.7120    -4.5720   -26.5560 ca         1 Z7I       0.000000
     13 C11        -25.7290    -5.3490   -27.1690 ca         1 Z7I      -0.142500
     14 C12        -25.6440    -6.6950   -26.8600 ca         1 Z7I       0.137000
     15 CL1        -28.5470    -7.2380   -24.2220 cl         1 Z7I      -0.160500
     16 N2         -26.8930    -3.2140   -26.8090 ns         1 Z7I      -0.147000
     17 C13        -24.3390   -13.2060   -25.1050 c3         1 Z7I      -0.087100
     18 C14        -24.7160   -13.0430   -22.6270 c3         1 Z7I      -0.087100
     19 C15        -26.0560    -2.3510   -27.4500 c          1 Z7I       0.608100
     20 O2         -24.9850    -2.6830   -27.9240 o          1 Z7I      -0.572100
     21 C16        -26.5450    -0.9240   -27.5150 c3         1 Z7I      -0.155400
     22 C17        -25.6470     0.0150   -26.7060 c6         1 Z7I      -0.056700
     23 C18        -25.7450    -0.2550   -25.2070 c6         1 Z7I      -0.075400
     24 C19        -24.9070     0.7270   -24.4030 c6         1 Z7I       0.196300
     25 N3         -25.3030     2.0970   -24.7380 n3         1 Z7I      -0.726500
     26 C20        -25.1440     2.4150   -26.1590 c6         1 Z7I       0.196300
     27 C21        -26.0030     1.4720   -26.9830 c6         1 Z7I      -0.075400
     28 CL2        -24.4410    -7.6600   -27.6260 cl         1 Z7I      -0.160500
     29 S1         -24.9200     3.2780   -23.6490 s6         1 Z7I       1.197100
     30 C22        -23.1470     3.4360   -23.6550 c3         1 Z7I      -0.382100
     31 O3         -25.3250     2.8030   -22.3340 o          1 Z7I      -0.530000
     32 O4         -25.4850     4.5240   -24.1450 o          1 Z7I      -0.530000
     33 O5         -22.7120   -10.5090   -22.2530 os         1 Z7I      -0.462300
     34 C23        -22.0170    -9.5890   -21.4280 c3         1 Z7I       0.159900
     35 H1         -24.9280    -7.1760   -23.9420 h4         1 Z7I       0.028100
     36 H2         -25.7740   -11.0890   -25.4670 ha         1 Z7I       0.139000
     37 H3         -22.9180   -12.5480   -23.6690 hc         1 Z7I       0.066700
     38 H4         -28.3550    -4.5750   -25.1620 ha         1 Z7I       0.150500
     39 H5         -25.0410    -4.9240   -27.8800 ha         1 Z7I       0.150500
     40 H6         -27.7310    -2.8140   -26.4170 hn         1 Z7I       0.156000
     41 H7         -24.0020   -14.2390   -25.0120 hc         1 Z7I       0.036533
     42 H8         -25.4140   -13.2360   -25.2880 hc         1 Z7I       0.036533
     43 H9         -23.8570   -12.7760   -25.9850 hc         1 Z7I       0.036533
     44 H10        -24.4280   -12.5580   -21.6950 hc         1 Z7I       0.036533
     45 H11        -25.7980   -12.9470   -22.7370 hc         1 Z7I       0.036533
     46 H12        -24.4830   -14.1050   -22.5360 hc         1 Z7I       0.036533
     47 H13        -26.5270    -0.6260   -28.5670 hc         1 Z7I       0.067700
     48 H14        -27.5800    -0.8290   -27.1780 hc         1 Z7I       0.067700
     49 H15        -24.6100    -0.1430   -27.0240 hc         1 Z7I       0.068700
     50 H16        -26.7890    -0.1800   -24.8880 hc         1 Z7I       0.055450
     51 H17        -25.4040    -1.2640   -24.9630 hc         1 Z7I       0.055450
     52 H18        -25.0590     0.5530   -23.3400 h1         1 Z7I       0.056450
     53 H19        -23.8430     0.5670   -24.6220 h1         1 Z7I       0.056450
     54 H20        -24.0930     2.3190   -26.4650 h1         1 Z7I       0.056450
     55 H21        -25.4490     3.4430   -26.3380 h1         1 Z7I       0.056450
     56 H22        -25.8580     1.7040   -28.0410 hc         1 Z7I       0.055450
     57 H23        -27.0580     1.6490   -26.7520 hc         1 Z7I       0.055450
     58 H24        -22.8780     4.2150   -22.9430 h1         1 Z7I       0.100700
     59 H25        -22.6940     2.4940   -23.3550 h1         1 Z7I       0.100700
     60 H26        -22.8080     3.7160   -24.6500 h1         1 Z7I       0.100700
     61 H27        -21.3470   -10.1860   -20.8150 h1         1 Z7I       0.044700
     62 H28        -21.4310    -8.8790   -22.0150 h1         1 Z7I       0.044700
     63 H29        -22.6930    -9.0290   -20.7820 h1         1 Z7I       0.044700
@<TRIPOS>BOND
     1     1     2 ar  
     2     1     6 ar  
     3     1     7 1   
     4     2     3 ar  
     5     2    33 1   
     6     3     4 ar  
     7     4     5 ar  
     8     4    35 1   
     9     5     6 ar  
    10     5     8 1   
    11     6    36 1   
    12     7    17 1   
    13     7    18 1   
    14     7    37 1   
    15     8     9 1   
    16     9    10 ar  
    17     9    14 ar  
    18    10    11 ar  
    19    10    15 1   
    20    11    12 ar  
    21    11    38 1   
    22    12    13 ar  
    23    12    16 1   
    24    13    14 ar  
    25    13    39 1   
    26    14    28 1   
    27    16    19 1   
    28    16    40 1   
    29    17    41 1   
    30    17    42 1   
    31    17    43 1   
    32    18    44 1   
    33    18    45 1   
    34    18    46 1   
    35    19    20 2   
    36    19    21 1   
    37    21    22 1   
    38    21    47 1   
    39    21    48 1   
    40    22    23 1   
    41    22    27 1   
    42    22    49 1   
    43    23    24 1   
    44    23    50 1   
    45    23    51 1   
    46    24    25 1   
    47    24    52 1   
    48    24    53 1   
    49    25    26 1   
    50    25    29 1   
    51    26    27 1   
    52    26    54 1   
    53    26    55 1   
    54    27    56 1   
    55    27    57 1   
    56    29    30 1   
    57    29    31 2   
    58    29    32 2   
    59    30    58 1   
    60    30    59 1   
    61    30    60 1   
    62    33    34 1   
    63    34    61 1   
    64    34    62 1   
    65    34    63 1   
@<TRIPOS>SUBSTRUCTURE
     1 Z7I         1 TEMP              0 ****  ****    0 ROOT
