@<TRIPOS>MOLECULE
Z7N
   60    62     1     0     0
SMALL
abcg2


@<TRIPOS>ATOM
      1 C10         -1.2910    18.1050   -13.6270 c6         1 Z7N      -0.155700
      2 O12         -3.3040    18.9280   -14.6600 o          1 Z7N      -0.561100
      3 C16         -6.2120    16.3490   -16.3270 ca         1 Z7N       0.211000
      4 C20         -5.3240    14.1900   -15.8680 ca         1 Z7N      -0.047000
      5 C21         -4.2080    14.7820   -15.3110 ca         1 Z7N      -0.185000
      6 C22         -0.6740    19.4910   -13.7580 c6         1 Z7N      -0.063400
      7 C23          0.5930    19.6010   -12.9110 c6         1 Z7N      -0.079700
      8 C24          1.1530    21.0090   -13.0000 c3         1 Z7N       0.168600
      9 C26          0.3170    19.2060   -11.4620 c6         1 Z7N       0.102000
     10 C28         -0.2100    15.0050   -11.6790 c6         1 Z7N       0.096000
     11 C11         -2.6020    17.9760   -14.3810 c          1 Z7N       0.611100
     12 C03         -1.5060    13.8540    -9.4370 c6         1 Z7N       0.170500
     13 C04         -1.4600    12.9740    -8.1920 c3         1 Z7N      -0.092100
     14 C05         -0.4220    14.9180    -9.3010 c6         1 Z7N       0.096000
     15 C09         -1.5280    17.7920   -12.1450 c6         1 Z7N       0.101000
     16 C14         -4.0830    16.1740   -15.2550 ca         1 Z7N       0.013000
     17 C15         -5.1060    16.9660   -15.7760 ca         1 Z7N      -0.176000
     18 C18         -6.3460    14.9740   -16.3830 ca         1 Z7N       0.035000
     19 C29         -1.2940    13.9500   -11.8460 c6         1 Z7N       0.170500
     20 N02         -1.3230    13.0850   -10.6680 n3         1 Z7N      -0.714600
     21 N06         -0.4130    15.7710   -10.4660 n          1 Z7N      -0.420800
     22 N08         -0.2790    17.8850   -11.4140 n          1 Z7N      -0.420800
     23 N13         -2.9250    16.6850   -14.6770 ns         1 Z7N      -0.149000
     24 O25          2.3720    21.0740   -12.2950 oh         1 Z7N      -0.660000
     25 CL1         -7.7560    14.2740   -17.0810 cl         1 Z7N      -0.167000
     26 H1          -0.5860    17.3640   -14.0230 hc         1 Z7N       0.066700
     27 H2          -5.4030    13.1120   -15.9010 ha         1 Z7N       0.132000
     28 H3          -3.4240    14.1510   -14.9120 ha         1 Z7N       0.117000
     29 H4          -0.4430    19.7060   -14.8040 hc         1 Z7N       0.059200
     30 H5          -1.3980    20.2430   -13.4280 hc         1 Z7N       0.059200
     31 H6           1.3390    18.9050   -13.3150 hc         1 Z7N       0.068700
     32 H7           1.2870    21.2710   -14.0580 h1         1 Z7N       0.022200
     33 H8           0.4130    21.7120   -12.5910 h1         1 Z7N       0.022200
     34 H9           1.2410    19.2010   -10.8900 h1         1 Z7N       0.063700
     35 H10         -0.3510    19.9490   -11.0010 h1         1 Z7N       0.063700
     36 H11         -0.1930    15.6520   -12.5520 h1         1 Z7N       0.054950
     37 H12          0.7670    14.5030   -11.6380 h1         1 Z7N       0.054950
     38 H16         -2.2780    11.3610    -9.9490 h1         1 Z7N       0.032367
     39 H17         -3.3520    12.4400   -10.8500 h1         1 Z7N       0.032367
     40 H18         -2.1510    11.4440   -11.6840 h1         1 Z7N       0.032367
     41 H19         -2.4780    14.3800    -9.4570 h1         1 Z7N       0.025700
     42 H20         -2.3360    12.3370    -8.0910 hc         1 Z7N       0.041367
     43 H21         -0.5720    12.3390    -8.2010 hc         1 Z7N       0.041367
     44 H22         -1.4180    13.5990    -7.2990 hc         1 Z7N       0.041367
     45 H23          0.5530    14.4300    -9.1590 h1         1 Z7N       0.054950
     46 H24         -0.6240    15.5130    -8.4130 h1         1 Z7N       0.054950
     47 H25         -2.2430    18.5220   -11.7420 h1         1 Z7N       0.055700
     48 H26         -1.9730    16.8100   -12.0080 h1         1 Z7N       0.055700
     49 H27         -5.0590    18.0430   -15.7650 ha         1 Z7N       0.169000
     50 H28         -2.2620    14.4760   -11.9600 h1         1 Z7N       0.025700
     51 H30         -2.2480    15.9870   -14.4000 hn         1 Z7N       0.153000
     52 H31          2.6590    21.9900   -12.2710 ho         1 Z7N       0.447000
     53 C07         -0.0150    17.0770   -10.3340 c          1 Z7N       0.659100
     54 F17         -7.1870    17.1100   -16.8260 f          1 Z7N      -0.157000
     55 O27          0.5300    17.4960    -9.3220 o          1 Z7N      -0.610100
     56 C30         -1.0170    13.1760   -13.1290 c3         1 Z7N      -0.092100
     57 C01         -2.3250    12.0450   -10.7940 c3         1 Z7N       0.149100
     58 H13         -1.8580    12.5590   -13.4390 hc         1 Z7N       0.041367
     59 H14         -0.8190    13.8730   -13.9460 hc         1 Z7N       0.041367
     60 H15         -0.1430    12.5320   -13.0150 hc         1 Z7N       0.041367
@<TRIPOS>BOND
     1     1     6 1   
     2     1    11 1   
     3     1    15 1   
     4     1    26 1   
     5     2    11 2   
     6     3    17 ar  
     7     3    18 ar  
     8     3    54 1   
     9     4     5 ar  
    10     4    18 ar  
    11     4    27 1   
    12     5    16 ar  
    13     5    28 1   
    14     6     7 1   
    15     6    29 1   
    16     6    30 1   
    17     7     8 1   
    18     7     9 1   
    19     7    31 1   
    20     8    24 1   
    21     8    32 1   
    22     8    33 1   
    23     9    22 1   
    24     9    34 1   
    25     9    35 1   
    26    10    19 1   
    27    10    21 1   
    28    10    36 1   
    29    10    37 1   
    30    11    23 1   
    31    12    13 1   
    32    12    14 1   
    33    12    20 1   
    34    12    41 1   
    35    13    42 1   
    36    13    43 1   
    37    13    44 1   
    38    14    21 1   
    39    14    45 1   
    40    14    46 1   
    41    15    22 1   
    42    15    47 1   
    43    15    48 1   
    44    16    17 ar  
    45    16    23 1   
    46    17    49 1   
    47    18    25 1   
    48    19    20 1   
    49    19    50 1   
    50    19    56 1   
    51    20    57 1   
    52    21    53 1   
    53    22    53 1   
    54    23    51 1   
    55    24    52 1   
    56    38    57 1   
    57    39    57 1   
    58    40    57 1   
    59    53    55 2   
    60    56    58 1   
    61    56    59 1   
    62    56    60 1   
@<TRIPOS>SUBSTRUCTURE
     1 Z7N         1 TEMP              0 ****  ****    0 ROOT
