@<TRIPOS>MOLECULE
Z7N
   60    62     1     0     0
SMALL
No Charge or Current Charge


@<TRIPOS>ATOM
      1 C10         -1.6340    18.1250   -13.5420 c6         1 Z7N      -0.155700
      2 O12         -3.9540    18.7310   -13.7750 o          1 Z7N      -0.561100
      3 C16         -6.5840    16.7950   -16.7360 ca         1 Z7N       0.211000
      4 C20         -5.0670    15.2090   -17.7760 ca         1 Z7N      -0.047000
      5 C21         -4.0310    15.6610   -16.9390 ca         1 Z7N      -0.185000
      6 C22         -0.9470    19.4900   -13.7780 c6         1 Z7N      -0.063400
      7 C23          0.4820    19.4700   -13.1850 c6         1 Z7N      -0.079700
      8 C24          1.1870    20.8430   -13.3730 c3         1 Z7N       0.168600
      9 C26          0.4570    19.0310   -11.6940 c6         1 Z7N       0.102000
     10 C28         -0.3580    14.7620   -11.3290 c6         1 Z7N       0.096000
     11 C11         -3.0380    18.0210   -14.1710 c          1 Z7N       0.611100
     12 C03         -1.2980    13.7180    -8.7760 c6         1 Z7N       0.170500
     13 C04         -1.0670    13.0480    -7.3900 c3         1 Z7N      -0.092100
     14 C05         -0.3850    14.9800    -8.8720 c6         1 Z7N       0.096000
     15 C09         -1.6160    17.6800   -12.0650 c6         1 Z7N       0.101000
     16 C14         -4.2580    16.6810   -15.9940 ca         1 Z7N       0.013000
     17 C15         -5.5490    17.2470   -15.9000 ca         1 Z7N      -0.176000
     18 C18         -6.3480    15.7750   -17.6770 ca         1 Z7N       0.035000
     19 C29         -1.2940    13.5210   -11.2320 c6         1 Z7N       0.170500
     20 N02         -1.1050    12.7830    -9.9370 n3         1 Z7N      -0.714600
     21 N06         -0.4680    15.6950   -10.1720 n          1 Z7N      -0.420800
     22 N08         -0.2520    17.7370   -11.4580 n          1 Z7N      -0.420800
     23 N13         -3.1600    17.0800   -15.1860 ns         1 Z7N      -0.149000
     24 O25          2.5560    20.8040   -12.9560 oh         1 Z7N      -0.660000
     25 Cl1         -7.6380    15.2000   -18.7320 cl         1 Z7N      -0.167000
     26 H1          -1.0200    17.3860   -14.0750 hc         1 Z7N       0.066700
     27 H2          -4.8770    14.4210   -18.5010 ha         1 Z7N       0.132000
     28 H3          -3.0440    15.2130   -17.0280 ha         1 Z7N       0.117000
     29 H4          -0.9080    19.7130   -14.8540 hc         1 Z7N       0.059200
     30 H5          -1.5370    20.2910   -13.3100 hc         1 Z7N       0.059200
     31 H6           1.0790    18.7380   -13.7470 hc         1 Z7N       0.068700
     32 H7           1.1300    21.1200   -14.4350 h1         1 Z7N       0.022200
     33 H8           0.6380    21.6040   -12.8020 h1         1 Z7N       0.022200
     34 H9           1.4930    18.9440   -11.3350 h1         1 Z7N       0.063700
     35 H10         -0.0290    19.8120   -11.0920 h1         1 Z7N       0.063700
     36 H11         -0.5400    15.2800   -12.2780 h1         1 Z7N       0.054950
     37 H12          0.6810    14.4060   -11.3740 h1         1 Z7N       0.054950
     38 H16         -1.7480    11.0030    -8.9160 h1         1 Z7N       0.032367
     39 H17         -3.0170    11.8170    -9.8620 h1         1 Z7N       0.032367
     40 H18         -1.7450    10.8620   -10.6610 h1         1 Z7N       0.032367
     41 H19         -2.3390    14.0770    -8.7840 h1         1 Z7N       0.025700
     42 H20         -1.8440    12.3110    -7.1570 hc         1 Z7N       0.041367
     43 H21         -0.0940    12.5450    -7.3480 hc         1 Z7N       0.041367
     44 H22         -1.0920    13.7910    -6.5840 hc         1 Z7N       0.041367
     45 H23          0.6590    14.6800    -8.7060 h1         1 Z7N       0.054950
     46 H24         -0.6580    15.6730    -8.0630 h1         1 Z7N       0.054950
     47 H25         -2.2680    18.3520   -11.4880 h1         1 Z7N       0.055700
     48 H26         -2.0590    16.6800   -11.9760 h1         1 Z7N       0.055700
     49 H27         -5.7780    18.0340   -15.1900 ha         1 Z7N       0.169000
     50 H28         -2.3290    13.8920   -11.2830 h1         1 Z7N       0.025700
     51 H30         -2.3040    16.5810   -15.3900 hn         1 Z7N       0.153000
     52 H31          2.9330    21.6960   -13.1280 ho         1 Z7N       0.447000
     53 C07          0.0200    17.0130   -10.2770 c          1 Z7N       0.659100
     54 F17         -7.8120    17.3510   -16.6280 f          1 Z7N      -0.157000
     55 O27          0.6620    17.5160    -9.3660 o          1 Z7N      -0.610100
     56 C30         -1.0730    12.6360   -12.4940 c3         1 Z7N      -0.092100
     57 C01         -1.9500    11.5590    -9.8390 c3         1 Z7N       0.149100
     58 H13         -1.8570    11.8790   -12.6060 hc         1 Z7N       0.041367
     59 H14         -1.0950    13.2420   -13.4080 hc         1 Z7N       0.041367
     60 H15         -0.1040    12.1240   -12.4570 hc         1 Z7N       0.041367
@<TRIPOS>BOND
     1     1     6 1   
     2     1    11 1   
     3     1    15 1   
     4     1    26 1   
     5     2    11 2   
     6     3    17 ar  
     7     3    18 ar  
     8     3    54 1   
     9     4     5 ar  
    10     4    18 ar  
    11     4    27 1   
    12     5    16 ar  
    13     5    28 1   
    14     6     7 1   
    15     6    29 1   
    16     6    30 1   
    17     7     8 1   
    18     7     9 1   
    19     7    31 1   
    20     8    24 1   
    21     8    32 1   
    22     8    33 1   
    23     9    22 1   
    24     9    34 1   
    25     9    35 1   
    26    10    19 1   
    27    10    21 1   
    28    10    36 1   
    29    10    37 1   
    30    11    23 1   
    31    12    13 1   
    32    12    14 1   
    33    12    20 1   
    34    12    41 1   
    35    13    42 1   
    36    13    43 1   
    37    13    44 1   
    38    14    21 1   
    39    14    45 1   
    40    14    46 1   
    41    15    22 1   
    42    15    47 1   
    43    15    48 1   
    44    16    17 ar  
    45    16    23 1   
    46    17    49 1   
    47    18    25 1   
    48    19    20 1   
    49    19    50 1   
    50    19    56 1   
    51    20    57 1   
    52    21    53 1   
    53    22    53 1   
    54    23    51 1   
    55    24    52 1   
    56    38    57 1   
    57    39    57 1   
    58    40    57 1   
    59    53    55 2   
    60    56    58 1   
    61    56    59 1   
    62    56    60 1   
@<TRIPOS>SUBSTRUCTURE
     1 Z7N         1 TEMP              0 ****  ****    0 ROOT
