@<TRIPOS>MOLECULE
Z7S
   34    34     1     0     0
SMALL
No Charge or Current Charge


@<TRIPOS>ATOM
      1 CAA        -12.2450     9.8280    -9.9650 c3         1 Z7S      -0.182100
      2 CAG        -11.9510    17.9710    -8.6690 c3         1 Z7S       0.161600
      3 CAH        -10.3810    14.1890   -10.5790 c3         1 Z7S       0.121600
      4 CAK        -12.2180    11.0910    -9.1180 c          1 Z7S       0.601100
      5 CAL        -12.0510    16.5400    -9.3080 c6         1 Z7S       0.145500
      6 CAM        -11.1100    14.2180    -9.1870 c6         1 Z7S       0.162500
      7 CAN        -13.5190    15.9900    -9.3280 c6         1 Z7S       0.182300
      8 CAO        -13.5480    14.5480    -9.9400 c6         1 Z7S       0.165300
      9 CAP        -12.5480    13.6080    -9.2000 c6         1 Z7S       0.069700
     10 NAI        -12.5580    12.2450    -9.7870 ns         1 Z7S      -0.521900
     11 NAJ        -11.1070    15.5990    -8.6270 n7         1 Z7S      -0.848400
     12 OAB        -11.9170    11.0870    -7.9350 o          1 Z7S      -0.587100
     13 OAC        -12.4630    18.0380    -7.3250 oh         1 Z7S      -0.647000
     14 OAE        -14.3890    16.8780   -10.0690 oh         1 Z7S      -0.655000
     15 OAF        -14.8750    13.9840    -9.8740 oh         1 Z7S      -0.638000
     16 H1         -13.2340     9.7270   -10.4260 hc         1 Z7S       0.061033
     17 H2         -11.5950     9.9690   -10.8370 hc         1 Z7S       0.061033
     18 H3         -11.9690     8.9320    -9.3970 hc         1 Z7S       0.061033
     19 H4         -10.8970    18.2790    -8.6840 h1         1 Z7S       0.021700
     20 H5         -12.4960    18.6770    -9.3090 h1         1 Z7S       0.021700
     21 H6         -11.0140    14.6810   -11.3290 h1         1 Z7S       0.020700
     22 H7         -10.2610    13.1430   -10.8880 h1         1 Z7S       0.020700
     23 H8         -11.7220    16.6460   -10.3520 h1         1 Z7S       0.030700
     24 H9         -10.5000    13.5870    -8.5220 h1         1 Z7S       0.088700
     25 H10        -13.8630    15.9110    -8.2860 h1         1 Z7S       0.079700
     26 H11        -13.2390    14.6180   -10.9930 h1         1 Z7S       0.029700
     27 H12        -12.8770    13.5330    -8.1520 h1         1 Z7S       0.114700
     28 H13        -12.7530    12.1430   -10.7780 hn         1 Z7S       0.304500
     29 H14        -10.1500    15.9590    -8.7460 hn         1 Z7S       0.439000
     30 H16        -12.2060    18.9160    -6.9650 ho         1 Z7S       0.441000
     31 H17         -8.6970    14.7510   -11.4280 ho         1 Z7S       0.446000
     32 H18        -14.6640    17.5840    -9.4440 ho         1 Z7S       0.449000
     33 H19        -14.7680    13.0120    -9.9640 ho         1 Z7S       0.443000
     34 OAD         -9.0950    14.8350   -10.5320 oh         1 Z7S      -0.665000
@<TRIPOS>BOND
     1     1     4 1   
     2     1    16 1   
     3     1    17 1   
     4     1    18 1   
     5     2     5 1   
     6     2    13 1   
     7     2    19 1   
     8     2    20 1   
     9     3     6 1   
    10     3    21 1   
    11     3    22 1   
    12     3    34 1   
    13     4    10 1   
    14     4    12 2   
    15     5     7 1   
    16     5    11 1   
    17     5    23 1   
    18     6     9 1   
    19     6    11 1   
    20     6    24 1   
    21     7     8 1   
    22     7    14 1   
    23     7    25 1   
    24     8     9 1   
    25     8    15 1   
    26     8    26 1   
    27     9    10 1   
    28     9    27 1   
    29    10    28 1   
    30    11    29 1   
    31    13    30 1   
    32    14    32 1   
    33    15    33 1   
    34    31    34 1   
@<TRIPOS>SUBSTRUCTURE
     1 Z7S         1 TEMP              0 ****  ****    0 ROOT
