@<TRIPOS>MOLECULE
Z7S
   34    34     1     0     0
SMALL
abcg2


@<TRIPOS>ATOM
      1 CAA        -12.3910     9.9090    -9.9530 c3         1 Z7S      -0.182100
      2 CAG        -11.9220    17.8740    -8.7140 c3         1 Z7S       0.161600
      3 CAH        -10.3560    14.2350   -10.5850 c3         1 Z7S       0.121600
      4 CAK        -12.3880    11.1710    -9.1260 c          1 Z7S       0.601100
      5 CAL        -12.0150    16.4840    -9.3230 c6         1 Z7S       0.145500
      6 CAM        -11.0420    14.2500    -9.2180 c6         1 Z7S       0.162500
      7 CAN        -13.4460    15.9310    -9.3100 c6         1 Z7S       0.182300
      8 CAO        -13.4770    14.5390    -9.9240 c6         1 Z7S       0.165300
      9 CAP        -12.4480    13.6360    -9.2350 c6         1 Z7S       0.069700
     10 NAI        -12.4810    12.3190    -9.8310 ns         1 Z7S      -0.521900
     11 NAJ        -11.1520    15.5610    -8.6060 n7         1 Z7S      -0.848400
     12 OAB        -12.3120    11.1420    -7.9070 o          1 Z7S      -0.587100
     13 OAC        -12.4210    17.8670    -7.3980 oh         1 Z7S      -0.647000
     14 OAE        -14.3180    16.7500   -10.0550 oh         1 Z7S      -0.655000
     15 OAF        -14.7770    14.0210    -9.7760 oh         1 Z7S      -0.638000
     16 H1         -13.2070     9.2650    -9.6270 hc         1 Z7S       0.061033
     17 H2         -12.4950    10.0850   -11.0220 hc         1 Z7S       0.061033
     18 H3         -11.4620     9.3650    -9.7810 hc         1 Z7S       0.061033
     19 H4         -10.8690    18.1910    -8.7460 h1         1 Z7S       0.021700
     20 H5         -12.4710    18.5740    -9.3560 h1         1 Z7S       0.021700
     21 H6         -10.9610    14.7560   -11.3390 h1         1 Z7S       0.020700
     22 H7         -10.2550    13.1970   -10.9240 h1         1 Z7S       0.020700
     23 H8         -11.7220    16.6140   -10.3790 h1         1 Z7S       0.030700
     24 H9         -10.4320    13.6330    -8.5480 h1         1 Z7S       0.088700
     25 H10        -13.7760    15.8430    -8.2660 h1         1 Z7S       0.079700
     26 H11        -13.2180    14.6330   -10.9920 h1         1 Z7S       0.029700
     27 H12        -12.7580    13.5260    -8.1940 h1         1 Z7S       0.114700
     28 H13        -12.4730    12.2530   -10.8380 hn         1 Z7S       0.304500
     29 H14        -10.2300    15.9630    -8.5000 hn         1 Z7S       0.439000
     30 H16        -12.4440    18.7740    -7.0810 ho         1 Z7S       0.441000
     31 H17         -8.6710    14.8870   -11.2940 ho         1 Z7S       0.446000
     32 H18        -14.6030    17.4810    -9.4990 ho         1 Z7S       0.449000
     33 H19        -14.7930    13.1390   -10.1620 ho         1 Z7S       0.443000
     34 OAD         -9.0960    14.8500   -10.4330 oh         1 Z7S      -0.665000
@<TRIPOS>BOND
     1     1     4 1   
     2     1    16 1   
     3     1    17 1   
     4     1    18 1   
     5     2     5 1   
     6     2    13 1   
     7     2    19 1   
     8     2    20 1   
     9     3     6 1   
    10     3    21 1   
    11     3    22 1   
    12     3    34 1   
    13     4    10 1   
    14     4    12 2   
    15     5     7 1   
    16     5    11 1   
    17     5    23 1   
    18     6     9 1   
    19     6    11 1   
    20     6    24 1   
    21     7     8 1   
    22     7    14 1   
    23     7    25 1   
    24     8     9 1   
    25     8    15 1   
    26     8    26 1   
    27     9    10 1   
    28     9    27 1   
    29    10    28 1   
    30    11    29 1   
    31    13    30 1   
    32    14    32 1   
    33    15    33 1   
    34    31    34 1   
@<TRIPOS>SUBSTRUCTURE
     1 Z7S         1 TEMP              0 ****  ****    0 ROOT
