@<TRIPOS>MOLECULE
Z7T
   30    31     1     0     0
SMALL
No Charge or Current Charge


@<TRIPOS>ATOM
      1 C10         -4.6130   -34.8230    17.6470 c5         1 Z7T       0.236500
      2 C13         -2.6820   -33.5960    18.3850 c5         1 Z7T      -0.082400
      3 C15         -5.0970   -35.6190    14.2770 ca         1 Z7T      -0.190000
      4 N01         -5.8360   -34.8210    10.6900 nt         1 Z7T      -0.601000
      5 O03         -4.1860   -36.0280    11.5490 o          1 Z7T      -0.598100
      6 C04         -5.7340   -35.0880    13.1360 ca         1 Z7T      -0.071600
      7 C05         -6.8920   -34.3100    13.3700 ca         1 Z7T      -0.219000
      8 C06         -7.3430   -34.1100    14.6860 ca         1 Z7T       0.383900
      9 N07         -6.7190   -34.6260    15.7660 nb         1 Z7T      -0.743000
     10 C08         -5.6170   -35.3540    15.5500 ca         1 Z7T       0.616900
     11 N09         -5.0230   -35.8780    16.6820 nu         1 Z7T      -0.928100
     12 C11         -4.0520   -35.5980    18.8620 c5         1 Z7T      -0.095400
     13 C12         -3.2230   -34.4810    19.5590 c5         1 Z7T      -0.082400
     14 C14         -3.2960   -34.2190    17.0950 c5         1 Z7T      -0.095400
     15 H1          -5.3770   -34.0790    17.9240 h1         1 Z7T       0.079700
     16 H2          -1.5870   -33.5890    18.3450 hc         1 Z7T       0.044950
     17 H3          -3.0000   -32.5540    18.5100 hc         1 Z7T       0.044950
     18 H4          -4.2030   -36.2280    14.1780 ha         1 Z7T       0.139000
     19 H5          -5.4850   -34.9880     9.7590 hn         1 Z7T       0.315500
     20 H6          -6.6630   -34.2620    10.8340 hn         1 Z7T       0.315500
     21 H7          -7.4530   -33.8590    12.5570 ha         1 Z7T       0.121000
     22 H8          -8.2350   -33.5170    14.8810 h4         1 Z7T       0.015100
     23 H9          -4.3510   -36.6080    16.4600 hn         1 Z7T       0.488000
     24 H10         -4.8430   -35.9970    19.5070 hc         1 Z7T       0.050450
     25 H11         -3.4080   -36.4380    18.5730 hc         1 Z7T       0.050450
     26 H12         -3.8540   -33.8870    20.2310 hc         1 Z7T       0.044950
     27 H13         -2.4150   -34.8980    20.1710 hc         1 Z7T       0.044950
     28 H14         -2.6260   -34.9790    16.6760 hc         1 Z7T       0.050450
     29 H15         -3.4700   -33.4700    16.3140 hc         1 Z7T       0.050450
     30 C02         -5.1850   -35.3550    11.7460 c          1 Z7T       0.613700
@<TRIPOS>BOND
     1     1    11 1   
     2     1    12 1   
     3     1    14 1   
     4     1    15 1   
     5     2    13 1   
     6     2    14 1   
     7     2    16 1   
     8     2    17 1   
     9     3     6 ar  
    10     3    10 ar  
    11     3    18 1   
    12     4    19 1   
    13     4    20 1   
    14     4    30 1   
    15     5    30 2   
    16     6     7 ar  
    17     6    30 1   
    18     7     8 ar  
    19     7    21 1   
    20     8     9 ar  
    21     8    22 1   
    22     9    10 ar  
    23    10    11 1   
    24    11    23 1   
    25    12    13 1   
    26    12    24 1   
    27    12    25 1   
    28    13    26 1   
    29    13    27 1   
    30    14    28 1   
    31    14    29 1   
@<TRIPOS>SUBSTRUCTURE
     1 Z7T         1 TEMP              0 ****  ****    0 ROOT
