@<TRIPOS>MOLECULE
Z7T
   30    31     1     0     0
SMALL
abcg2


@<TRIPOS>ATOM
      1 C10         -4.5910   -34.8360    17.6770 c5         1 Z7T       0.236500
      2 C13         -2.6890   -33.6300    18.6480 c5         1 Z7T      -0.082400
      3 C15         -5.0400   -35.6930    14.0570 ca         1 Z7T      -0.190000
      4 N01         -5.8870   -35.2190    10.5840 nt         1 Z7T      -0.601000
      5 O03         -5.0970   -37.0780    11.5880 o          1 Z7T      -0.598100
      6 C04         -5.8140   -35.3020    12.9900 ca         1 Z7T      -0.071600
      7 C05         -6.8180   -34.3460    13.1910 ca         1 Z7T      -0.219000
      8 C06         -6.9640   -33.8380    14.4650 ca         1 Z7T       0.383900
      9 N07         -6.2100   -34.1820    15.5040 nb         1 Z7T      -0.743000
     10 C08         -5.2600   -35.0990    15.3190 ca         1 Z7T       0.616900
     11 N09         -4.5150   -35.4750    16.3840 nu         1 Z7T      -0.928100
     12 C11         -3.8790   -35.6940    18.7420 c5         1 Z7T      -0.095400
     13 C12         -3.1500   -34.6970    19.6380 c5         1 Z7T      -0.082400
     14 C14         -3.9140   -33.4400    17.7540 c5         1 Z7T      -0.095400
     15 H1          -5.6470   -34.7360    17.9290 h1         1 Z7T       0.079700
     16 H2          -1.8450   -34.0090    18.0660 hc         1 Z7T       0.044950
     17 H3          -2.3640   -32.7050    19.1270 hc         1 Z7T       0.044950
     18 H4          -4.2670   -36.4420    13.9370 ha         1 Z7T       0.139000
     19 H5          -5.7170   -35.5860     9.6610 hn         1 Z7T       0.315500
     20 H6          -6.1490   -34.2500    10.6480 hn         1 Z7T       0.315500
     21 H7          -7.4860   -34.0260    12.4030 ha         1 Z7T       0.121000
     22 H8          -7.7370   -33.1040    14.6660 h4         1 Z7T       0.015100
     23 H9          -3.7050   -36.0440    16.1940 hn         1 Z7T       0.488000
     24 H10         -4.5720   -36.3410    19.2800 hc         1 Z7T       0.050450
     25 H11         -3.1420   -36.3460    18.2620 hc         1 Z7T       0.050450
     26 H12         -3.8400   -34.2580    20.3630 hc         1 Z7T       0.044950
     27 H13         -2.3330   -35.1530    20.1990 hc         1 Z7T       0.044950
     28 H14         -3.6720   -33.0470    16.7660 hc         1 Z7T       0.050450
     29 H15         -4.6010   -32.7300    18.2200 hc         1 Z7T       0.050450
     30 C02         -5.5640   -35.9520    11.6590 c          1 Z7T       0.613700
@<TRIPOS>BOND
     1     1    11 1   
     2     1    12 1   
     3     1    14 1   
     4     1    15 1   
     5     2    13 1   
     6     2    14 1   
     7     2    16 1   
     8     2    17 1   
     9     3     6 ar  
    10     3    10 ar  
    11     3    18 1   
    12     4    19 1   
    13     4    20 1   
    14     4    30 1   
    15     5    30 2   
    16     6     7 ar  
    17     6    30 1   
    18     7     8 ar  
    19     7    21 1   
    20     8     9 ar  
    21     8    22 1   
    22     9    10 ar  
    23    10    11 1   
    24    11    23 1   
    25    12    13 1   
    26    12    24 1   
    27    12    25 1   
    28    13    26 1   
    29    13    27 1   
    30    14    28 1   
    31    14    29 1   
@<TRIPOS>SUBSTRUCTURE
     1 Z7T         1 TEMP              0 ****  ****    0 ROOT
