@<TRIPOS>MOLECULE
Z7Z
   24    25     1     0     0
SMALL
No Charge or Current Charge


@<TRIPOS>ATOM
      1 O1          66.3440    38.0610    28.9600 o          1 Z7Z      -0.718500
      2 C1          67.4350    38.4720    29.3300 c          1 Z7Z       0.712600
      3 O2          68.1490    37.8500    30.1040 o          1 Z7Z      -0.718500
      4 C2          67.9250    39.8150    28.8060 ca         1 Z7Z      -0.119600
      5 C3          67.1370    40.5760    27.9110 ca         1 Z7Z      -0.094000
      6 C4          67.5920    41.8150    27.4280 ca         1 Z7Z      -0.124000
      7 C5          69.1790    40.3350    29.2000 ca         1 Z7Z      -0.094000
      8 C6          69.6280    41.5760    28.7150 ca         1 Z7Z      -0.124000
      9 C7          68.8460    42.3440    27.8180 cp         1 Z7Z      -0.090000
     10 C8          69.3280    43.6660    27.3020 cp         1 Z7Z       0.010000
     11 C9          69.0150    44.0990    25.9880 ca         1 Z7Z      -0.112000
     12 C10         70.1130    44.5280    28.1100 ca         1 Z7Z      -0.112000
     13 C11         69.4670    45.3390    25.5030 ca         1 Z7Z      -0.117500
     14 C12         70.5650    45.7680    27.6270 ca         1 Z7Z      -0.117500
     15 C13         70.2420    46.1740    26.3220 ca         1 Z7Z      -0.135000
     16 H31         66.1660    40.2090    27.5880 ha         1 Z7Z       0.127500
     17 H41         66.9520    42.3770    26.7520 ha         1 Z7Z       0.088000
     18 H51         69.8140    39.7770    29.8850 ha         1 Z7Z       0.127500
     19 H61         70.6040    41.9360    29.0310 ha         1 Z7Z       0.088000
     20 H91         68.4270    43.4620    25.3320 ha         1 Z7Z       0.115000
     21 H101        70.3630    44.2390    29.1270 ha         1 Z7Z       0.115000
     22 H111        69.2180    45.6500    24.4900 ha         1 Z7Z       0.098000
     23 H121        71.1630    46.4150    28.2650 ha         1 Z7Z       0.098000
     24 H131        70.5910    47.1330    25.9480 ha         1 Z7Z       0.096000
@<TRIPOS>BOND
     1     1     2 1   
     2     2     3 1   
     3     2     4 1   
     4     4     5 ar  
     5     4     7 ar  
     6     5     6 ar  
     7     5    16 1   
     8     6     9 ar  
     9     6    17 1   
    10     7     8 ar  
    11     7    18 1   
    12     8     9 ar  
    13     8    19 1   
    14     9    10 1   
    15    10    11 ar  
    16    10    12 ar  
    17    11    13 ar  
    18    11    20 1   
    19    12    14 ar  
    20    12    21 1   
    21    13    15 ar  
    22    13    22 1   
    23    14    15 ar  
    24    14    23 1   
    25    15    24 1   
@<TRIPOS>SUBSTRUCTURE
     1 Z7Z         1 TEMP              0 ****  ****    0 ROOT
