@<TRIPOS>MOLECULE
Z7Z
   24    25     1     0     0
SMALL
abcg2


@<TRIPOS>ATOM
      1 O1          66.3230    38.1430    28.9320 o          1 Z7Z      -0.718500
      2 C1          67.4500    38.5120    29.3140 c          1 Z7Z       0.712600
      3 O2          68.2230    37.9030    30.0790 o          1 Z7Z      -0.718500
      4 C2          67.9390    39.8580    28.7880 ca         1 Z7Z      -0.119600
      5 C3          67.1530    40.6270    27.9330 ca         1 Z7Z      -0.094000
      6 C4          67.5970    41.8490    27.4540 ca         1 Z7Z      -0.124000
      7 C5          69.1880    40.3580    29.1500 ca         1 Z7Z      -0.094000
      8 C6          69.6370    41.5800    28.6750 ca         1 Z7Z      -0.124000
      9 C7          68.8490    42.3490    27.8160 cp         1 Z7Z      -0.090000
     10 C8          69.3250    43.6520    27.3070 cp         1 Z7Z       0.010000
     11 C9          69.0430    44.0560    26.0000 ca         1 Z7Z      -0.112000
     12 C10         70.0670    44.5110    28.1190 ca         1 Z7Z      -0.112000
     13 C11         69.4870    45.2800    25.5220 ca         1 Z7Z      -0.117500
     14 C12         70.5110    45.7360    27.6420 ca         1 Z7Z      -0.117500
     15 C13         70.2220    46.1270    26.3420 ca         1 Z7Z      -0.135000
     16 H31         66.1750    40.2670    27.6430 ha         1 Z7Z       0.127500
     17 H41         66.9510    42.4310    26.8080 ha         1 Z7Z       0.088000
     18 H51         69.8210    39.7780    29.8070 ha         1 Z7Z       0.127500
     19 H61         70.6220    41.9290    28.9600 ha         1 Z7Z       0.088000
     20 H91         68.4880    43.3990    25.3420 ha         1 Z7Z       0.115000
     21 H101        70.2840    44.2310    29.1430 ha         1 Z7Z       0.115000
     22 H111        69.2630    45.5700    24.5030 ha         1 Z7Z       0.098000
     23 H121        71.0770    46.3900    28.2930 ha         1 Z7Z       0.098000
     24 H131        70.5680    47.0820    25.9690 ha         1 Z7Z       0.096000
@<TRIPOS>BOND
     1     1     2 1   
     2     2     3 1   
     3     2     4 1   
     4     4     5 ar  
     5     4     7 ar  
     6     5     6 ar  
     7     5    16 1   
     8     6     9 ar  
     9     6    17 1   
    10     7     8 ar  
    11     7    18 1   
    12     8     9 ar  
    13     8    19 1   
    14     9    10 1   
    15    10    11 ar  
    16    10    12 ar  
    17    11    13 ar  
    18    11    20 1   
    19    12    14 ar  
    20    12    21 1   
    21    13    15 ar  
    22    13    22 1   
    23    14    15 ar  
    24    14    23 1   
    25    15    24 1   
@<TRIPOS>SUBSTRUCTURE
     1 Z7Z         1 TEMP              0 ****  ****    0 ROOT
