@<TRIPOS>MOLECULE
Z80
   40    42     1     0     0
SMALL
No Charge or Current Charge


@<TRIPOS>ATOM
      1 C1          -1.4820    -1.2840    -0.2040 ca         1 Z80       0.029000
      2 N1          -0.4010    -0.4310     0.0390 na         1 Z80      -0.085000
      3 S1          -2.9600     0.4210     1.4230 ss         1 Z80       0.034000
      4 C2          -2.7310    -1.0300     0.4010 ca         1 Z80      -0.135000
      5 N2           4.2980    -2.3900     0.0720 n3         1 Z80      -0.711600
      6 C3          -1.7630     1.4950     0.6370 ca         1 Z80      -0.138000
      7 C4          -0.6260     0.9480     0.0030 ca         1 Z80       0.046000
      8 C5          -2.4160    -3.2830    -1.2510 ca         1 Z80      -0.074000
      9 C6          -3.6530    -3.0320    -0.6350 ca         1 Z80      -0.135000
     10 C7          -3.8120    -1.9050     0.1890 ca         1 Z80      -0.056000
     11 C8          -1.9760     2.8850     0.6360 ca         1 Z80      -0.049000
     12 C9          -1.0580     3.7340    -0.0040 ca         1 Z80      -0.133000
     13 C10          0.0660     3.1930    -0.6450 ca         1 Z80       0.155000
     14 C11          0.2830     1.8070    -0.6430 ca         1 Z80      -0.165000
     15 C12          0.7490    -0.9420     0.8160 c3         1 Z80       0.068600
     16 C13          1.9770    -1.3410    -0.0330 c3         1 Z80      -0.114400
     17 C14          3.1460    -1.8510     0.8370 c3         1 Z80       0.166800
     18 C15          4.9600    -1.3930    -0.8040 c3         1 Z80       0.148100
     19 C16          5.2710    -3.0800     0.9490 c3         1 Z80       0.148100
     20 Cl1          1.2100     4.2560    -1.4540 cl         1 Z80      -0.203000
     21 H1          -2.2950    -4.1530    -1.8940 ha         1 Z80       0.115000
     22 H2          -4.4900    -3.7060    -0.8010 ha         1 Z80       0.119000
     23 H3          -2.8530     3.3040     1.1250 ha         1 Z80       0.129000
     24 H4          -1.2210     4.8090    -0.0080 ha         1 Z80       0.134000
     25 H5           1.1560     1.4070    -1.1490 ha         1 Z80       0.132000
     26 H6           1.0490    -0.1720     1.5380 h1         1 Z80       0.058700
     27 H7           0.4160    -1.8140     1.3940 h1         1 Z80       0.058700
     28 H8           1.6960    -2.1260    -0.7420 hc         1 Z80       0.060200
     29 H9           2.3050    -0.4760    -0.6170 hc         1 Z80       0.060200
     30 H10          2.7500    -2.6410     1.4890 h1         1 Z80       0.029200
     31 H11          3.4810    -1.0340     1.4920 h1         1 Z80       0.029200
     32 H12          5.3360    -0.5440    -0.2180 h1         1 Z80       0.031867
     33 H13          5.8080    -1.8460    -1.3340 h1         1 Z80       0.031867
     34 H14          4.2680    -1.0090    -1.5650 h1         1 Z80       0.031867
     35 H15          4.7790    -3.8740     1.5270 h1         1 Z80       0.031867
     36 H16          6.0710    -3.5430     0.3550 h1         1 Z80       0.031867
     37 H17          5.7310    -2.3750     1.6550 h1         1 Z80       0.031867
     38 C17         -1.3340    -2.4120    -1.0360 ca         1 Z80      -0.159000
     39 H18         -4.7740    -1.7070     0.6560 ha         1 Z80       0.125000
     40 H20         -0.3840    -2.6160    -1.5220 ha         1 Z80       0.120000
@<TRIPOS>BOND
     1     1     2 1   
     2     1     4 ar  
     3     1    38 ar  
     4     2     7 1   
     5     2    15 1   
     6     3     4 1   
     7     3     6 1   
     8     4    10 ar  
     9     5    17 1   
    10     5    18 1   
    11     5    19 1   
    12     6     7 ar  
    13     6    11 ar  
    14     7    14 ar  
    15     8     9 ar  
    16     8    21 1   
    17     8    38 ar  
    18     9    10 ar  
    19     9    22 1   
    20    10    39 1   
    21    11    12 ar  
    22    11    23 1   
    23    12    13 ar  
    24    12    24 1   
    25    13    14 ar  
    26    13    20 1   
    27    14    25 1   
    28    15    16 1   
    29    15    26 1   
    30    15    27 1   
    31    16    17 1   
    32    16    28 1   
    33    16    29 1   
    34    17    30 1   
    35    17    31 1   
    36    18    32 1   
    37    18    33 1   
    38    18    34 1   
    39    19    35 1   
    40    19    36 1   
    41    19    37 1   
    42    38    40 1   
@<TRIPOS>SUBSTRUCTURE
     1 Z80         1 TEMP              0 ****  ****    0 ROOT
