@<TRIPOS>MOLECULE
Z80
   40    42     1     0     0
SMALL
bcc


@<TRIPOS>ATOM
      1 C1          -1.4640    -1.3230     0.2480 ca         1 Z80       0.079700
      2 N1          -0.5070    -0.3940     0.6810 na         1 Z80      -0.157100
      3 S1          -3.3330     0.6510     0.5670 ss         1 Z80      -0.255800
      4 C2          -2.8000    -0.9440     0.0570 ca         1 Z80       0.009900
      5 N2           4.0220    -2.2550    -0.3640 n3         1 Z80      -0.711600
      6 C3          -1.8780     1.5560     0.1850 ca         1 Z80       0.006900
      7 C4          -0.6210     0.9610     0.3680 ca         1 Z80       0.096700
      8 C5          -2.1010    -3.5680    -0.4220 ca         1 Z80      -0.092000
      9 C6          -3.4060    -3.1660    -0.6500 ca         1 Z80      -0.153000
     10 C7          -3.7470    -1.8420    -0.4120 ca         1 Z80      -0.074000
     11 C8          -1.9950     2.8900    -0.1660 ca         1 Z80      -0.067000
     12 C9          -0.8770     3.7020    -0.2890 ca         1 Z80      -0.151000
     13 C10          0.3590     3.1270    -0.0640 ca         1 Z80       0.063400
     14 C11          0.5030     1.7830     0.2420 ca         1 Z80      -0.183000
     15 C12          0.7850    -0.8970     1.1270 c3         1 Z80       0.039300
     16 C13          1.7930    -1.2260     0.0230 c3         1 Z80      -0.114400
     17 C14          3.0460    -1.8460     0.6280 c3         1 Z80       0.166800
     18 C15          4.6460    -1.1260    -1.0210 c3         1 Z80       0.148100
     19 C16          5.0270    -3.1160     0.2240 c3         1 Z80       0.148100
     20 CL1          1.7880     4.1000    -0.1900 cl         1 Z80      -0.111400
     21 H1          -1.8100    -4.5970    -0.5880 ha         1 Z80       0.133000
     22 H2          -4.1530    -3.8670    -0.9960 ha         1 Z80       0.137000
     23 H3          -2.9790     3.3150    -0.3210 ha         1 Z80       0.147000
     24 H4          -0.9780     4.7480    -0.5400 ha         1 Z80       0.152000
     25 H5           1.5000     1.4000     0.3900 ha         1 Z80       0.150000
     26 H6           1.2100    -0.1640     1.8150 h1         1 Z80       0.058700
     27 H7           0.5990    -1.7830     1.7380 h1         1 Z80       0.058700
     28 H8           1.3650    -1.9210    -0.7010 hc         1 Z80       0.060200
     29 H9           2.0410    -0.3250    -0.5390 hc         1 Z80       0.060200
     30 H10          2.7480    -2.7370     1.1890 h1         1 Z80       0.029200
     31 H11          3.4870    -1.1510     1.3650 h1         1 Z80       0.029200
     32 H12          5.1770    -0.4620    -0.3210 h1         1 Z80       0.031867
     33 H13          5.3680    -1.4800    -1.7580 h1         1 Z80       0.031867
     34 H14          3.9100    -0.5240    -1.5550 h1         1 Z80       0.031867
     35 H15          4.5560    -3.9950     0.6670 h1         1 Z80       0.031867
     36 H16          5.7190    -3.4600    -0.5460 h1         1 Z80       0.031867
     37 H17          5.6220    -2.6210     1.0080 h1         1 Z80       0.031867
     38 C17         -1.1410    -2.6610     0.0050 ca         1 Z80      -0.177000
     39 H18         -4.7650    -1.5050    -0.5660 ha         1 Z80       0.143000
     40 H20         -0.1380    -3.0290     0.1550 ha         1 Z80       0.138000
@<TRIPOS>BOND
     1     1     2 1   
     2     1     4 ar  
     3     1    38 ar  
     4     2     7 1   
     5     2    15 1   
     6     3     4 1   
     7     3     6 1   
     8     4    10 ar  
     9     5    17 1   
    10     5    18 1   
    11     5    19 1   
    12     6     7 ar  
    13     6    11 ar  
    14     7    14 ar  
    15     8     9 ar  
    16     8    21 1   
    17     8    38 ar  
    18     9    10 ar  
    19     9    22 1   
    20    10    39 1   
    21    11    12 ar  
    22    11    23 1   
    23    12    13 ar  
    24    12    24 1   
    25    13    14 ar  
    26    13    20 1   
    27    14    25 1   
    28    15    16 1   
    29    15    26 1   
    30    15    27 1   
    31    16    17 1   
    32    16    28 1   
    33    16    29 1   
    34    17    30 1   
    35    17    31 1   
    36    18    32 1   
    37    18    33 1   
    38    18    34 1   
    39    19    35 1   
    40    19    36 1   
    41    19    37 1   
    42    38    40 1   
@<TRIPOS>SUBSTRUCTURE
     1 Z80         1 TEMP              0 ****  ****    0 ROOT
