@<TRIPOS>MOLECULE
Z81
   44    47     1     0     0
SMALL
No Charge or Current Charge


@<TRIPOS>ATOM
      1 C1           0.6390     1.7770     2.2310 ca         1 Z81      -0.117000
      2 F1           6.5390     1.2580    -0.7370 f          1 Z81      -0.175000
      3 N1          -4.4060     3.3440    -1.0800 nb         1 Z81      -0.662000
      4 O1          -2.9160    -0.8330     2.2010 o          1 Z81      -0.503000
      5 C2           1.8710     1.3120     1.7500 ca         1 Z81      -0.085000
      6 F2           2.5370    -2.4220     0.1450 f          1 Z81      -0.172000
      7 N2          -1.7090    -0.9410    -1.2460 n2         1 Z81      -0.702900
      8 C3          -0.5580     1.3190     1.6620 ca         1 Z81      -0.072000
      9 N3          -2.6860    -2.2180     0.3500 n          1 Z81      -0.381300
     10 C4           5.7720    -0.9970    -0.7880 ca         1 Z81      -0.126000
     11 N4          -2.2520    -3.1280    -1.7470 nv         1 Z81      -1.035200
     12 C5           4.7410    -1.9260    -0.5650 ca         1 Z81      -0.128000
     13 C6          -2.2470     2.2490    -0.9970 ca         1 Z81      -0.143000
     14 C7          -4.1810     1.1280    -0.1210 ca         1 Z81      -0.143000
     15 C8           0.7070    -0.0690     0.1260 ca         1 Z81      -0.057000
     16 C9           4.3050     0.8000    -0.0430 ca         1 Z81      -0.122000
     17 C10         -3.0780     3.3310    -1.3300 ca         1 Z81       0.325900
     18 C11         -4.9400     2.2530    -0.4870 ca         1 Z81       0.325900
     19 C12          1.9280     0.3740     0.6940 cp         1 Z81      -0.053000
     20 C13          3.2460    -0.1170     0.1830 cp         1 Z81      -0.040000
     21 C14         -0.5470     0.3930     0.5960 ca         1 Z81      -0.080300
     22 C15         -2.7880     1.1110    -0.3620 ca         1 Z81      -0.029300
     23 C16          5.5500     0.3630    -0.5240 ca         1 Z81       0.155000
     24 C17          3.4920    -1.4930    -0.0850 ca         1 Z81       0.163000
     25 C18         -2.5620    -1.0350     1.0450 c          1 Z81       0.553000
     26 C19         -2.1810    -2.0720    -0.9180 c2         1 Z81       0.681800
     27 C20         -1.8850    -0.0900    -0.0080 c5         1 Z81       0.161800
     28 H1           0.6120     2.4930     3.0500 ha         1 Z81       0.118000
     29 H2           2.7900     1.6710     2.2080 ha         1 Z81       0.116000
     30 H3          -1.5040     1.6900     2.0530 ha         1 Z81       0.127000
     31 H4           6.7390    -1.3270    -1.1590 ha         1 Z81       0.136000
     32 HN4         -2.0660    -2.8560    -2.7050 hn         1 Z81       0.494000
     33 HN4A        -3.0890    -3.6850    -1.6340 hn         1 Z81       0.494000
     34 H5           4.9070    -2.9830    -0.7590 ha         1 Z81       0.135000
     35 H6          -1.1890     2.3010    -1.2390 ha         1 Z81       0.138500
     36 H7          -4.6930     0.2880     0.3380 ha         1 Z81       0.138500
     37 H8           0.7500    -0.7740    -0.6990 ha         1 Z81       0.136000
     38 H9           4.1560     1.8600     0.1440 ha         1 Z81       0.139000
     39 H10         -2.6670     4.2150    -1.8170 h4         1 Z81       0.018600
     40 H11         -6.0130     2.2790    -0.3030 h4         1 Z81       0.018600
     41 H21         -4.2530    -3.6290     0.5530 h1         1 Z81       0.052033
     42 H21A        -2.6050    -4.3040     0.7290 h1         1 Z81       0.052033
     43 H21B        -3.3190    -3.3430     2.0460 h1         1 Z81       0.052033
     44 C21         -3.2490    -3.4450     0.9560 c3         1 Z81       0.094300
@<TRIPOS>BOND
     1     1     5 ar  
     2     1     8 ar  
     3     1    28 1   
     4     2    23 1   
     5     3    17 ar  
     6     3    18 ar  
     7     4    25 2   
     8     5    19 ar  
     9     5    29 1   
    10     6    24 1   
    11     7    26 2   
    12     7    27 1   
    13     8    21 ar  
    14     8    30 1   
    15     9    25 1   
    16     9    26 1   
    17     9    44 1   
    18    10    12 ar  
    19    10    23 ar  
    20    10    31 1   
    21    11    26 1   
    22    11    32 1   
    23    11    33 1   
    24    12    24 ar  
    25    12    34 1   
    26    13    17 ar  
    27    13    22 ar  
    28    13    35 1   
    29    14    18 ar  
    30    14    22 ar  
    31    14    36 1   
    32    15    19 ar  
    33    15    21 ar  
    34    15    37 1   
    35    16    20 ar  
    36    16    23 ar  
    37    16    38 1   
    38    17    39 1   
    39    18    40 1   
    40    19    20 1   
    41    20    24 ar  
    42    21    27 1   
    43    22    27 1   
    44    25    27 1   
    45    41    44 1   
    46    42    44 1   
    47    43    44 1   
@<TRIPOS>SUBSTRUCTURE
     1 Z81         1 TEMP              0 ****  ****    0 ROOT
