@<TRIPOS>MOLECULE
Z81
   44    47     1     0     0
SMALL
bcc


@<TRIPOS>ATOM
      1 C1           0.5690     1.7250     2.2700 ca         1 Z81      -0.135000
      2 F1           6.3340     1.2390    -0.7920 f          1 Z81      -0.139900
      3 N1          -4.3280     3.3620    -0.9870 nb         1 Z81      -0.662000
      4 O1          -2.8320    -0.9250     2.0960 o          1 Z81      -0.578500
      5 C2           1.7900     1.2520     1.8110 ca         1 Z81      -0.103000
      6 F2           2.4860    -2.3740     0.3770 f          1 Z81      -0.136900
      7 N2          -1.6640    -0.8080    -1.2500 n2         1 Z81      -0.702900
      8 C3          -0.6110     1.3100     1.6750 ca         1 Z81      -0.090000
      9 N3          -2.6380    -2.2230     0.2150 n          1 Z81      -0.448300
     10 C4           5.6480    -1.0030    -0.6780 ca         1 Z81      -0.144000
     11 N4          -2.0760    -3.0050    -1.9330 nv         1 Z81      -0.924800
     12 C5           4.6500    -1.9190    -0.3810 ca         1 Z81      -0.146000
     13 C6          -2.4570     1.9340    -1.4110 ca         1 Z81      -0.226300
     14 C7          -3.8980     1.4700     0.4180 ca         1 Z81      -0.226300
     15 C8           0.6440    -0.0560     0.1510 ca         1 Z81      -0.075000
     16 C9           4.1570     0.7930    -0.0520 ca         1 Z81      -0.140000
     17 C10         -3.2520     3.0290    -1.6950 ca         1 Z81       0.391200
     18 C11         -4.6330     2.5890     0.0440 ca         1 Z81       0.391200
     19 C12          1.8370     0.3570     0.7460 cp         1 Z81      -0.053000
     20 C13          3.1430    -0.1170     0.2440 cp         1 Z81      -0.040000
     21 C14         -0.5780     0.4150     0.6080 ca         1 Z81      -0.080300
     22 C15         -2.7790     1.1240    -0.3250 ca         1 Z81      -0.029300
     23 C16          5.3790     0.3400    -0.5050 ca         1 Z81       0.119900
     24 C17          3.4260    -1.4660     0.0710 ca         1 Z81       0.127900
     25 C18         -2.5200    -1.0780     0.9380 c          1 Z81       0.695500
     26 C19         -2.1150    -1.9940    -1.0540 c2         1 Z81       0.681800
     27 C20         -1.8770    -0.0670    -0.0280 c5         1 Z81       0.161800
     28 H1           0.5390     2.4200     3.0990 ha         1 Z81       0.136000
     29 H2           2.7080     1.5740     2.2880 ha         1 Z81       0.134000
     30 H3          -1.5530     1.6960     2.0410 ha         1 Z81       0.145000
     31 H4           6.6130    -1.3350    -1.0370 ha         1 Z81       0.154000
     32 HN4         -1.8250    -2.7770    -2.8810 hn         1 Z81       0.438800
     33 HN4A        -2.6890    -3.7960    -1.8280 hn         1 Z81       0.438800
     34 H5           4.8290    -2.9800    -0.4920 ha         1 Z81       0.153000
     35 H6          -1.6010     1.7160    -2.0350 ha         1 Z81       0.156500
     36 H7          -4.2170     0.9030     1.2800 ha         1 Z81       0.156500
     37 H8           0.6630    -0.7280    -0.6960 ha         1 Z81       0.154000
     38 H9           3.9800     1.8560     0.0580 ha         1 Z81       0.157000
     39 H10         -3.0090     3.6670    -2.5380 h4         1 Z81       0.018600
     40 H11         -5.5120     2.8670     0.6170 h4         1 Z81       0.018600
     41 H21         -4.0410    -3.7800     0.1520 h1         1 Z81       0.052033
     42 H21A        -2.4010    -4.2600     0.6440 h1         1 Z81       0.052033
     43 H21B        -3.4340    -3.3500     1.7510 h1         1 Z81       0.052033
     44 C21         -3.1550    -3.4770     0.7090 c3         1 Z81       0.094300
@<TRIPOS>BOND
     1     1     5 ar  
     2     1     8 ar  
     3     1    28 1   
     4     2    23 1   
     5     3    17 ar  
     6     3    18 ar  
     7     4    25 2   
     8     5    19 ar  
     9     5    29 1   
    10     6    24 1   
    11     7    26 2   
    12     7    27 1   
    13     8    21 ar  
    14     8    30 1   
    15     9    25 1   
    16     9    26 1   
    17     9    44 1   
    18    10    12 ar  
    19    10    23 ar  
    20    10    31 1   
    21    11    26 1   
    22    11    32 1   
    23    11    33 1   
    24    12    24 ar  
    25    12    34 1   
    26    13    17 ar  
    27    13    22 ar  
    28    13    35 1   
    29    14    18 ar  
    30    14    22 ar  
    31    14    36 1   
    32    15    19 ar  
    33    15    21 ar  
    34    15    37 1   
    35    16    20 ar  
    36    16    23 ar  
    37    16    38 1   
    38    17    39 1   
    39    18    40 1   
    40    19    20 1   
    41    20    24 ar  
    42    21    27 1   
    43    22    27 1   
    44    25    27 1   
    45    41    44 1   
    46    42    44 1   
    47    43    44 1   
@<TRIPOS>SUBSTRUCTURE
     1 Z81         1 TEMP              0 ****  ****    0 ROOT
