@<TRIPOS>MOLECULE
Z82
   14    14     1     0     0
SMALL
bcc


@<TRIPOS>ATOM
      1 C1          -1.9270     0.0320    -0.0090 ca         1 Z82      -0.120600
      2 O1          -4.0080     1.1440     0.0210 o          1 Z82      -0.821800
      3 C2          -1.2150     1.2270     0.0370 ca         1 Z82      -0.106000
      4 C3           0.1720     1.2410     0.0490 ca         1 Z82      -0.139000
      5 C4           0.8560     0.0340     0.0150 ca         1 Z82      -0.031900
      6 BR4          2.7470     0.0350     0.0320 br         1 Z82      -0.176100
      7 C5           0.1750    -1.1740    -0.0310 ca         1 Z82      -0.139000
      8 C6          -1.2130    -1.1620    -0.0430 ca         1 Z82      -0.106000
      9 C7          -3.4520     0.0300    -0.0220 c          1 Z82       0.923200
     10 H2          -1.7520     2.1660     0.0640 ha         1 Z82       0.149000
     11 H3           0.7050     2.1830     0.0860 ha         1 Z82       0.120000
     12 H5           0.7090    -2.1150    -0.0580 ha         1 Z82       0.120000
     13 H6          -1.7470    -2.1030    -0.0800 ha         1 Z82       0.149000
     14 O2          -4.0050    -1.0840    -0.0730 o          1 Z82      -0.821800
@<TRIPOS>BOND
     1     1     3 ar  
     2     1     8 ar  
     3     1     9 1   
     4     2     9 1   
     5     3     4 ar  
     6     3    10 1   
     7     4     5 ar  
     8     4    11 1   
     9     5     6 1   
    10     5     7 ar  
    11     7     8 ar  
    12     7    12 1   
    13     8    13 1   
    14     9    14 1   
@<TRIPOS>SUBSTRUCTURE
     1 Z82         1 TEMP              0 ****  ****    0 ROOT
