@<TRIPOS>MOLECULE
Z82
   14    14     1     0     0
SMALL
No Charge or Current Charge


@<TRIPOS>ATOM
      1 C1          -1.9460     0.0320    -0.0090 ca         1 Z82      -0.120600
      2 O1          -4.0550     1.1030     0.0100 o          1 Z82      -0.716500
      3 C2          -1.2230     1.2480     0.0390 ca         1 Z82      -0.088000
      4 C3           0.1830     1.2480     0.0510 ca         1 Z82      -0.121000
      5 C4           0.8850     0.0340     0.0150 ca         1 Z82      -0.031900
      6 Br4          2.7960     0.0350     0.0320 br         1 Z82      -0.176100
      7 C5           0.1860    -1.1810    -0.0320 ca         1 Z82      -0.121000
      8 C6          -1.2200    -1.1840    -0.0440 ca         1 Z82      -0.088000
      9 C7          -3.4680     0.0300    -0.0220 c          1 Z82       0.712600
     10 H2          -1.7500     2.2000     0.0670 ha         1 Z82       0.131000
     11 H3           0.7250     2.1900     0.0880 ha         1 Z82       0.102000
     12 H5           0.7300    -2.1220    -0.0600 ha         1 Z82       0.102000
     13 H6          -1.7450    -2.1360    -0.0820 ha         1 Z82       0.131000
     14 O2          -4.0530    -1.0430    -0.0640 o          1 Z82      -0.716500
@<TRIPOS>BOND
     1     1     3 ar  
     2     1     8 ar  
     3     1     9 1   
     4     2     9 1   
     5     3     4 ar  
     6     3    10 1   
     7     4     5 ar  
     8     4    11 1   
     9     5     6 1   
    10     5     7 ar  
    11     7     8 ar  
    12     7    12 1   
    13     8    13 1   
    14     9    14 1   
@<TRIPOS>SUBSTRUCTURE
     1 Z82         1 TEMP              0 ****  ****    0 ROOT
