@<TRIPOS>MOLECULE
Z83
   48    50     1     0     0
SMALL
abcg2


@<TRIPOS>ATOM
      1 CAA         -0.9860     4.9930     1.6020 c3         1 Z83      -0.078433
      2 CAB         -1.5070     5.1590    -0.8390 c3         1 Z83      -0.078433
      3 CAC          0.8460     5.3950    -0.0470 c3         1 Z83      -0.078433
      4 OAD          7.2310    -2.7090     0.1100 o          1 Z83      -0.717500
      5 OAF          6.0730    -1.1080     1.1430 o          1 Z83      -0.717500
      6 CAG         -5.2570    -4.2980    -0.1780 cc         1 Z83       0.304900
      7 CAH         -6.1230    -3.3170     0.1620 cd         1 Z83      -0.325000
      8 CAI          3.6990    -0.3350    -1.3650 ca         1 Z83      -0.109000
      9 CAJ          2.9260    -1.5380     0.5460 ca         1 Z83      -0.109000
     10 CAK          2.6410     0.5520    -1.2500 ca         1 Z83      -0.107000
     11 CAL          1.8700    -0.6520     0.6870 ca         1 Z83      -0.107000
     12 CAM         -1.3450     2.2140     0.0490 cc         1 Z83      -0.242000
     13 NAO         -3.9540    -3.9140    -0.3390 nc         1 Z83      -0.717000
     14 NAP          0.8700     2.6180    -0.0350 nd         1 Z83      -0.488800
     15 NAQ         -1.1180    -0.2920    -0.1960 ns         1 Z83      -0.394100
     16 SAS         -5.2870    -1.8140     0.2940 ss         1 Z83       0.052600
     17 CAT          6.2150    -2.0130     0.3050 c          1 Z83       0.727000
     18 CAU         -2.4080    -0.6890    -0.0150 c          1 Z83       0.671100
     19 CAV          3.8590    -1.3980    -0.4790 ca         1 Z83       0.030700
     20 CAW          1.7220     0.3910    -0.2210 ca         1 Z83      -0.060200
     21 CAX         -0.3140     3.1810     0.0610 cc         1 Z83       0.254300
     22 CAY         -0.6840     1.0140    -0.0670 cd         1 Z83       0.008600
     23 CAZ         -3.8270    -2.6450    -0.1240 cd         1 Z83       0.560300
     24 NBA          0.6420     1.2940    -0.0990 na         1 Z83       0.211000
     25 CBB         -0.4800     4.6730     0.1900 c3         1 Z83      -0.068300
     26 HAA         -1.1430     6.0680     1.7150 hc         1 Z83       0.033922
     27 HAAA        -1.9330     4.4940     1.8140 hc         1 Z83       0.033922
     28 HAAB        -0.2650     4.6790     2.3590 hc         1 Z83       0.033922
     29 HAB         -1.6270     6.2420    -0.7680 hc         1 Z83       0.033922
     30 HABA        -1.1920     4.9220    -1.8570 hc         1 Z83       0.033922
     31 HABB        -2.4880     4.7100    -0.6780 hc         1 Z83       0.033922
     32 HAC          1.6020     5.1060     0.6840 hc         1 Z83       0.033922
     33 HACA         1.2460     5.1870    -1.0410 hc         1 Z83       0.033922
     34 HACB         0.6960     6.4720     0.0380 hc         1 Z83       0.033922
     35 HAG         -5.5240    -5.3350    -0.3250 h4         1 Z83       0.034100
     36 HAH         -7.1840    -3.3880     0.3390 h4         1 Z83       0.154000
     37 HAI          4.4110    -0.2030    -2.1720 ha         1 Z83       0.118500
     38 HAJ          3.0270    -2.3520     1.2540 ha         1 Z83       0.118500
     39 HAK          2.5250     1.3650    -1.9550 ha         1 Z83       0.111000
     40 HAL          1.1750    -0.7620     1.5100 ha         1 Z83       0.111000
     41 HAM         -2.4050     2.3790     0.1010 ha         1 Z83       0.158000
     42 HAN          5.3520    -2.3800    -1.6460 hc         1 Z83       0.036200
     43 HANA         4.6800    -3.3630    -0.3700 hc         1 Z83       0.036200
     44 HNAQ        -0.4340    -0.9770    -0.4900 hn         1 Z83       0.342500
     45 HNAR        -1.8400    -2.6330    -0.4860 hn         1 Z83       0.344500
     46 NAR         -2.6070    -2.0260    -0.2320 ns         1 Z83      -0.486400
     47 CAN          5.0060    -2.3460    -0.6100 c3         1 Z83      -0.201100
     48 OAE         -3.3160     0.0530     0.3080 o          1 Z83      -0.603100
@<TRIPOS>BOND
     1     1    25 1   
     2     1    26 1   
     3     1    27 1   
     4     1    28 1   
     5     2    25 1   
     6     2    29 1   
     7     2    30 1   
     8     2    31 1   
     9     3    25 1   
    10     3    32 1   
    11     3    33 1   
    12     3    34 1   
    13     4    17 1   
    14     5    17 1   
    15     6     7 2   
    16     6    13 1   
    17     6    35 1   
    18     7    16 1   
    19     7    36 1   
    20     8    10 ar  
    21     8    19 ar  
    22     8    37 1   
    23     9    11 ar  
    24     9    19 ar  
    25     9    38 1   
    26    10    20 ar  
    27    10    39 1   
    28    11    20 ar  
    29    11    40 1   
    30    12    21 1   
    31    12    22 2   
    32    12    41 1   
    33    13    23 2   
    34    14    21 2   
    35    14    24 1   
    36    15    18 1   
    37    15    22 1   
    38    15    44 1   
    39    16    23 1   
    40    17    47 1   
    41    18    46 1   
    42    18    48 2   
    43    19    47 1   
    44    20    24 1   
    45    21    25 1   
    46    22    24 1   
    47    23    46 1   
    48    42    47 1   
    49    43    47 1   
    50    45    46 1   
@<TRIPOS>SUBSTRUCTURE
     1 Z83         1 TEMP              0 ****  ****    0 ROOT
