@<TRIPOS>MOLECULE
Z83
   48    50     1     0     0
SMALL
No Charge or Current Charge


@<TRIPOS>ATOM
      1 CAA         -1.2690     5.0840     1.5260 c3         1 Z83      -0.078433
      2 CAB         -1.3310     5.2350    -1.0020 c3         1 Z83      -0.078433
      3 CAC          0.8120     5.6920     0.2420 c3         1 Z83      -0.078433
      4 OAD          6.6820    -1.7640    -1.1760 o          1 Z83      -0.717500
      5 OAF          6.4880    -2.1570     0.9340 o          1 Z83      -0.717500
      6 CAG         -4.8980    -4.4670    -0.2660 cc         1 Z83       0.304900
      7 CAH         -5.9400    -3.5820    -0.1770 cd         1 Z83      -0.325000
      8 CAI          3.2900    -0.8900    -1.4660 ca         1 Z83      -0.109000
      9 CAJ          3.0710    -1.3340     0.9130 ca         1 Z83      -0.109000
     10 CAK          2.3530     0.1530    -1.3600 ca         1 Z83      -0.107000
     11 CAL          2.1340    -0.2920     1.0220 ca         1 Z83      -0.107000
     12 CAM         -1.1450     2.3270     0.0900 cc         1 Z83      -0.242000
     13 NAO         -3.6400    -3.9170    -0.2630 nc         1 Z83      -0.717000
     14 NAP          1.0890     2.8350     0.0590 nd         1 Z83      -0.488800
     15 NAQ         -1.0650    -0.1530    -0.0730 ns         1 Z83      -0.394100
     16 SAS         -5.3510    -1.9330    -0.0800 ss         1 Z83       0.052600
     17 CAT          6.0790    -2.2210    -0.2160 c          1 Z83       0.727000
     18 CAU         -2.3920    -0.5250    -0.0630 c          1 Z83       0.671100
     19 CAV          3.6550    -1.6410    -0.3320 ca         1 Z83       0.030700
     20 CAW          1.7700     0.4550    -0.1150 ca         1 Z83      -0.060200
     21 CAX         -0.1410     3.3260     0.1240 cc         1 Z83       0.254300
     22 CAY         -0.5160     1.1240    -0.0020 cd         1 Z83       0.008600
     23 CAZ         -3.7130    -2.6000    -0.1700 cd         1 Z83       0.560300
     24 NBA          0.8330     1.4820    -0.0110 na         1 Z83       0.211000
     25 CBB         -0.4730     4.8140     0.2210 c3         1 Z83      -0.068300
     26 HAA         -1.5000     6.1510     1.6330 hc         1 Z83       0.033922
     27 HAAA        -2.2180     4.5340     1.5350 hc         1 Z83       0.033922
     28 HAAB        -0.6910     4.7720     2.4040 hc         1 Z83       0.033922
     29 HAB         -1.5650     6.3070    -0.9690 hc         1 Z83       0.033922
     30 HABA        -0.7970     5.0330    -1.9380 hc         1 Z83       0.033922
     31 HABB        -2.2810     4.6880    -1.0300 hc         1 Z83       0.033922
     32 HAC          1.4460     5.4410     1.1010 hc         1 Z83       0.033922
     33 HACA         1.4020     5.5480    -0.6710 hc         1 Z83       0.033922
     34 HACB         0.5600     6.7570     0.3130 hc         1 Z83       0.033922
     35 HAG         -4.9840    -5.5440    -0.3380 h4         1 Z83       0.034100
     36 HAH         -7.0000    -3.7990    -0.1630 h4         1 Z83       0.154000
     37 HAI          3.7350    -1.1140    -2.4330 ha         1 Z83       0.118500
     38 HAJ          3.3450    -1.9030     1.7980 ha         1 Z83       0.118500
     39 HAK          2.0790     0.7250    -2.2430 ha         1 Z83       0.111000
     40 HAL          1.6900    -0.0640     1.9890 ha         1 Z83       0.111000
     41 HAM         -2.2110     2.5180     0.1280 ha         1 Z83       0.158000
     42 HAN          4.5840    -3.1780    -1.4660 hc         1 Z83       0.036200
     43 HANA         4.4190    -3.5120     0.3230 hc         1 Z83       0.036200
     44 HNAQ        -0.4190    -0.9270    -0.1440 hn         1 Z83       0.342500
     45 HNAR        -1.7070    -2.4190    -0.2120 hn         1 Z83       0.344500
     46 NAR         -2.5540    -1.8790    -0.1520 ns         1 Z83      -0.486400
     47 CAN          4.6670    -2.7740    -0.4500 c3         1 Z83      -0.201100
     48 OAE         -3.3170     0.2630     0.0160 o          1 Z83      -0.603100
@<TRIPOS>BOND
     1     1    25 1   
     2     1    26 1   
     3     1    27 1   
     4     1    28 1   
     5     2    25 1   
     6     2    29 1   
     7     2    30 1   
     8     2    31 1   
     9     3    25 1   
    10     3    32 1   
    11     3    33 1   
    12     3    34 1   
    13     4    17 1   
    14     5    17 1   
    15     6     7 2   
    16     6    13 1   
    17     6    35 1   
    18     7    16 1   
    19     7    36 1   
    20     8    10 ar  
    21     8    19 ar  
    22     8    37 1   
    23     9    11 ar  
    24     9    19 ar  
    25     9    38 1   
    26    10    20 ar  
    27    10    39 1   
    28    11    20 ar  
    29    11    40 1   
    30    12    21 1   
    31    12    22 2   
    32    12    41 1   
    33    13    23 2   
    34    14    21 2   
    35    14    24 1   
    36    15    18 1   
    37    15    22 1   
    38    15    44 1   
    39    16    23 1   
    40    17    47 1   
    41    18    46 1   
    42    18    48 2   
    43    19    47 1   
    44    20    24 1   
    45    21    25 1   
    46    22    24 1   
    47    23    46 1   
    48    42    47 1   
    49    43    47 1   
    50    45    46 1   
@<TRIPOS>SUBSTRUCTURE
     1 Z83         1 TEMP              0 ****  ****    0 ROOT
