@<TRIPOS>MOLECULE
Z84
   65    68     1     0     0
SMALL
No Charge or Current Charge


@<TRIPOS>ATOM
      1 CAA         -3.2530     5.7410     0.2640 c3         1 Z84      -0.049800
      2 CAB         -7.1270    -3.5040     0.8110 c3         1 Z84      -0.080433
      3 CAC         -6.8210    -3.4090    -1.7020 c3         1 Z84      -0.080433
      4 CAD         -8.5070    -1.9140    -0.5730 c3         1 Z84      -0.080433
      5 OAE         -1.7760    -2.6830     0.2140 o          1 Z84      -0.589100
      6 CAF         10.6230     1.1080    -0.4210 ca         1 Z84       0.331400
      7 CAG          9.6350     3.1410     0.0880 ca         1 Z84       0.331400
      8 CAH          9.3950     0.5630    -0.8320 ca         1 Z84      -0.153000
      9 CAI          8.3680     2.6740    -0.3040 ca         1 Z84      -0.153000
     10 CAJ         -3.9650     3.7010    -1.0710 ca         1 Z84      -0.104000
     11 CAK         -3.8560     3.5260     1.3520 ca         1 Z84      -0.104000
     12 CAL         -4.3800     2.3590    -1.1500 ca         1 Z84      -0.104500
     13 CAM         -4.2700     2.1850     1.2740 ca         1 Z84      -0.104500
     14 CAN          2.8510    -2.9410     0.7400 cc         1 Z84      -0.306000
     15 CAO         -4.6410    -1.8710    -0.1000 cc         1 Z84      -0.220000
     16 CAP          4.9480    -0.3500    -0.3360 c3         1 Z84       0.164600
     17 CAR          6.8810     0.8060    -1.2100 c3         1 Z84       0.206900
     18 NAS         10.7510     2.3770     0.0330 nb         1 Z84      -0.664000
     19 NAT          1.9340    -0.8020     0.6980 nd         1 Z84      -0.718000
     20 NAU         -6.2150    -0.2110    -0.2360 nd         1 Z84      -0.502800
     21 NAW         -0.3360    -0.9310     0.4340 ns         1 Z84      -0.486400
     22 OAX          6.2420     0.2120    -0.0670 os         1 Z84      -0.461000
     23 SAY          1.1610    -3.2960     0.5330 ss         1 Z84       0.069600
     24 CAZ         -1.5750    -1.4830     0.2750 c          1 Z84       0.672100
     25 CBA         -3.6980     4.2890     0.1790 ca         1 Z84      -0.068300
     26 CBB          8.2340     1.3560    -0.7770 ca         1 Z84      -0.045300
     27 CBC          3.0710    -1.5870     0.8040 cd         1 Z84       0.314300
     28 CBD         -4.5320     1.5960     0.0230 ca         1 Z84       0.000800
     29 CBE         -3.9360    -0.7130     0.0260 cd         1 Z84       0.013600
     30 CBF         -6.0040    -1.5200    -0.2540 cc         1 Z84       0.278300
     31 CBG          0.8680    -1.5680     0.5530 cc         1 Z84       0.549300
     32 NBH         -4.9310     0.2630    -0.0570 na         1 Z84       0.184000
     33 HAA         -2.6070     5.9120     1.1330 hc         1 Z84       0.046700
     34 HAAA        -2.6880     6.0390    -0.6280 hc         1 Z84       0.046700
     35 HAAB        -4.1170     6.4100     0.3520 hc         1 Z84       0.046700
     36 HAB         -6.1770    -4.0400     0.9250 hc         1 Z84       0.037033
     37 HABA        -7.3020    -2.9290     1.7280 hc         1 Z84       0.037033
     38 HABB        -7.9240    -4.2530     0.7230 hc         1 Z84       0.037033
     39 HAC         -7.6090    -4.1560    -1.8630 hc         1 Z84       0.037033
     40 HACA        -6.7770    -2.7660    -2.5890 hc         1 Z84       0.037033
     41 HACB        -5.8670    -3.9430    -1.6250 hc         1 Z84       0.037033
     42 HAD         -8.7590    -1.3200     0.3140 hc         1 Z84       0.037033
     43 HADA        -8.5450    -1.2540    -1.4490 hc         1 Z84       0.037033
     44 HADB        -9.2860    -2.6770    -0.6960 hc         1 Z84       0.037033
     45 HAG          9.7600     4.1580     0.4570 h4         1 Z84       0.017600
     46 HAH          9.3520    -0.4640    -1.1840 ha         1 Z84       0.128500
     47 HAI          7.5060     3.3310    -0.2350 ha         1 Z84       0.128500
     48 HAJ         -3.8520     4.2820    -1.9840 ha         1 Z84       0.119500
     49 HAK         -3.6580     3.9720     2.3240 ha         1 Z84       0.119500
     50 HAL         -4.5820     1.9120    -2.1200 ha         1 Z84       0.132500
     51 HAM         -4.3890     1.6030     2.1860 ha         1 Z84       0.132500
     52 HAN          3.5690    -3.7480     0.7990 h4         1 Z84       0.162000
     53 HAO         -4.2590    -2.8840    -0.0910 ha         1 Z84       0.167000
     54 HAP          5.0190    -1.1470    -1.0890 h1         1 Z84       0.032700
     55 HAPA         4.2580     0.4190    -0.7070 h1         1 Z84       0.032700
     56 HAR          7.0260     0.0610    -2.0040 h1         1 Z84       0.034200
     57 HARA         6.2680     1.6210    -1.6170 h1         1 Z84       0.034200
     58 HNAW        -0.2950     0.0740     0.4700 hn         1 Z84       0.338500
     59 CBI         -7.1020    -2.5690    -0.4270 c3         1 Z84      -0.073300
     60 NAV         -2.5670    -0.5310     0.1900 ns         1 Z84      -0.405100
     61 CAQ          4.4120    -0.9350     0.9800 c3         1 Z84      -0.103700
     62 HAF         11.5340     0.5110    -0.4550 h4         1 Z84       0.017600
     63 HAQ          5.1320    -1.6650     1.3670 hc         1 Z84       0.065700
     64 HAQA         4.3410    -0.1350     1.7260 hc         1 Z84       0.065700
     65 HNAV        -2.2320     0.4210     0.2580 hn         1 Z84       0.334500
@<TRIPOS>BOND
     1     1    25 1   
     2     1    33 1   
     3     1    34 1   
     4     1    35 1   
     5     2    36 1   
     6     2    37 1   
     7     2    38 1   
     8     2    59 1   
     9     3    39 1   
    10     3    40 1   
    11     3    41 1   
    12     3    59 1   
    13     4    42 1   
    14     4    43 1   
    15     4    44 1   
    16     4    59 1   
    17     5    24 2   
    18     6     8 ar  
    19     6    18 ar  
    20     6    62 1   
    21     7     9 ar  
    22     7    18 ar  
    23     7    45 1   
    24     8    26 ar  
    25     8    46 1   
    26     9    26 ar  
    27     9    47 1   
    28    10    12 ar  
    29    10    25 ar  
    30    10    48 1   
    31    11    13 ar  
    32    11    25 ar  
    33    11    49 1   
    34    12    28 ar  
    35    12    50 1   
    36    13    28 ar  
    37    13    51 1   
    38    14    23 1   
    39    14    27 2   
    40    14    52 1   
    41    15    29 2   
    42    15    30 1   
    43    15    53 1   
    44    16    22 1   
    45    16    54 1   
    46    16    55 1   
    47    16    61 1   
    48    17    22 1   
    49    17    26 1   
    50    17    56 1   
    51    17    57 1   
    52    19    27 1   
    53    19    31 2   
    54    20    30 2   
    55    20    32 1   
    56    21    24 1   
    57    21    31 1   
    58    21    58 1   
    59    23    31 1   
    60    24    60 1   
    61    27    61 1   
    62    28    32 1   
    63    29    32 1   
    64    29    60 1   
    65    30    59 1   
    66    60    65 1   
    67    61    63 1   
    68    61    64 1   
@<TRIPOS>SUBSTRUCTURE
     1 Z84         1 TEMP              0 ****  ****    0 ROOT
