@<TRIPOS>MOLECULE
Z84
   65    68     1     0     0
SMALL
bcc


@<TRIPOS>ATOM
      1 CAA         -4.1060     5.9400     0.0450 c3         1 Z84      -0.049800
      2 CAB         -6.9060    -3.4520     0.7130 c3         1 Z84      -0.080433
      3 CAC         -6.5970    -3.4260    -1.7650 c3         1 Z84      -0.080433
      4 CAD         -8.1790    -1.8230    -0.6930 c3         1 Z84      -0.080433
      5 OAE         -1.6000    -2.2870     0.8220 o          1 Z84      -0.589100
      6 CAF         10.3080     1.8810    -1.5980 ca         1 Z84       0.396700
      7 CAG          9.9440     1.9090     0.6370 ca         1 Z84       0.396700
      8 CAH          9.0820     1.2850    -1.8420 ca         1 Z84      -0.236300
      9 CAI          8.6970     1.3130     0.5020 ca         1 Z84      -0.236300
     10 CAJ         -4.9920     3.8380    -1.0170 ca         1 Z84      -0.122000
     11 CAK         -3.6910     3.6350     0.9760 ca         1 Z84      -0.122000
     12 CAL         -5.1230     2.4620    -1.0840 ca         1 Z84      -0.122500
     13 CAM         -3.8270     2.2540     0.9340 ca         1 Z84      -0.122500
     14 CAN          2.6830    -2.7330     1.6510 cc         1 Z84      -0.244400
     15 CAO         -4.3390    -1.9010    -0.2470 cc         1 Z84      -0.303300
     16 CAP          5.0370    -0.5880     0.0140 c3         1 Z84       0.141400
     17 CAR          6.9020     0.3710    -1.0260 c3         1 Z84       0.183700
     18 NAS         10.7450     2.1930    -0.3820 nb         1 Z84      -0.664000
     19 NAT          2.1240    -0.6530     0.8500 nd         1 Z84      -0.718000
     20 NAU         -5.8980    -0.2810    -0.3430 nd         1 Z84      -0.502800
     21 NAW         -0.1560    -0.5940     0.4210 ns         1 Z84      -0.553400
     22 OAX          6.3490    -0.1010     0.1670 os         1 Z84      -0.414600
     23 SAY          0.9810    -2.8810     1.4100 ss         1 Z84      -0.075300
     24 CAZ         -1.4060    -1.1520     0.4330 c          1 Z84       0.806100
     25 CBA         -4.2690     4.4490     0.0070 ca         1 Z84      -0.068300
     26 CBB          8.2450     0.9890    -0.7700 ca         1 Z84      -0.045300
     27 CBC          3.1080    -1.4930     1.3080 cd         1 Z84       0.379600
     28 CBD         -4.5350     1.6670    -0.1060 ca         1 Z84       0.000800
     29 CBE         -3.7120    -0.6850    -0.1260 cd         1 Z84       0.064300
     30 CBF         -5.7090    -1.5810    -0.3760 cc         1 Z84       0.343600
     31 CBG          0.9740    -1.2440     0.8480 cc         1 Z84       0.549300
     32 NBH         -4.6810     0.2640    -0.1720 na         1 Z84       0.133300
     33 HAA         -3.7820     6.2840     1.0260 hc         1 Z84       0.046700
     34 HAAA        -3.3570     6.2660    -0.6800 hc         1 Z84       0.046700
     35 HAAB        -5.0360     6.4500    -0.2050 hc         1 Z84       0.046700
     36 HAB         -5.9850    -4.0240     0.8370 hc         1 Z84       0.037033
     37 HABA        -7.0620    -2.8680     1.6210 hc         1 Z84       0.037033
     38 HABB        -7.7290    -4.1640     0.6240 hc         1 Z84       0.037033
     39 HAC         -7.3970    -4.1610    -1.8800 hc         1 Z84       0.037033
     40 HACA        -6.5620    -2.8230    -2.6750 hc         1 Z84       0.037033
     41 HACB        -5.6560    -3.9740    -1.6900 hc         1 Z84       0.037033
     42 HAD         -8.4120    -1.2020     0.1730 hc         1 Z84       0.037033
     43 HADA        -8.1790    -1.1800    -1.5740 hc         1 Z84       0.037033
     44 HADB        -8.9850    -2.5490    -0.8100 hc         1 Z84       0.037033
     45 HAG         10.3090     2.1680     1.6250 h4         1 Z84       0.017600
     46 HAH          8.7900     1.0520    -2.8580 ha         1 Z84       0.146500
     47 HAI          8.1030     1.1170     1.3830 ha         1 Z84       0.146500
     48 HAJ         -5.4540     4.4470    -1.7850 ha         1 Z84       0.137500
     49 HAK         -3.1390     4.0830     1.7940 ha         1 Z84       0.137500
     50 HAL         -5.6780     2.0030    -1.8910 ha         1 Z84       0.150500
     51 HAM         -3.3950     1.6480     1.7200 ha         1 Z84       0.150500
     52 HAN          3.2650    -3.5570     2.0330 h4         1 Z84       0.180000
     53 HAO         -3.8860    -2.8770    -0.2560 ha         1 Z84       0.185000
     54 HAP          5.0170    -1.4480    -0.6680 h1         1 Z84       0.032700
     55 HAPA         4.3860     0.1830    -0.4190 h1         1 Z84       0.032700
     56 HAR          7.0110    -0.4350    -1.7660 h1         1 Z84       0.034200
     57 HARA         6.2510     1.1270    -1.4900 h1         1 Z84       0.034200
     58 HNAW        -0.0070     0.3510     0.0960 hn         1 Z84       0.338500
     59 CBI         -6.8480    -2.5540    -0.5290 c3         1 Z84      -0.073300
     60 NAV         -2.3810    -0.3220    -0.0320 ns         1 Z84      -0.472100
     61 CAQ          4.5150    -0.9970     1.3830 c3         1 Z84      -0.103700
     62 HAF         10.9690     2.1120    -2.4260 h4         1 Z84       0.017600
     63 HAQ          5.1520    -1.7760     1.8060 hc         1 Z84       0.065700
     64 HAQA         4.5640    -0.1350     2.0540 hc         1 Z84       0.065700
     65 HNAV        -2.1310     0.6030    -0.3520 hn         1 Z84       0.334500
@<TRIPOS>BOND
     1     1    25 1   
     2     1    33 1   
     3     1    34 1   
     4     1    35 1   
     5     2    36 1   
     6     2    37 1   
     7     2    38 1   
     8     2    59 1   
     9     3    39 1   
    10     3    40 1   
    11     3    41 1   
    12     3    59 1   
    13     4    42 1   
    14     4    43 1   
    15     4    44 1   
    16     4    59 1   
    17     5    24 2   
    18     6     8 ar  
    19     6    18 ar  
    20     6    62 1   
    21     7     9 ar  
    22     7    18 ar  
    23     7    45 1   
    24     8    26 ar  
    25     8    46 1   
    26     9    26 ar  
    27     9    47 1   
    28    10    12 ar  
    29    10    25 ar  
    30    10    48 1   
    31    11    13 ar  
    32    11    25 ar  
    33    11    49 1   
    34    12    28 ar  
    35    12    50 1   
    36    13    28 ar  
    37    13    51 1   
    38    14    23 1   
    39    14    27 2   
    40    14    52 1   
    41    15    29 2   
    42    15    30 1   
    43    15    53 1   
    44    16    22 1   
    45    16    54 1   
    46    16    55 1   
    47    16    61 1   
    48    17    22 1   
    49    17    26 1   
    50    17    56 1   
    51    17    57 1   
    52    19    27 1   
    53    19    31 2   
    54    20    30 2   
    55    20    32 1   
    56    21    24 1   
    57    21    31 1   
    58    21    58 1   
    59    23    31 1   
    60    24    60 1   
    61    27    61 1   
    62    28    32 1   
    63    29    32 1   
    64    29    60 1   
    65    30    59 1   
    66    60    65 1   
    67    61    63 1   
    68    61    64 1   
@<TRIPOS>SUBSTRUCTURE
     1 Z84         1 TEMP              0 ****  ****    0 ROOT
