@<TRIPOS>MOLECULE
Z85
   66    69     1     0     0
SMALL
bcc


@<TRIPOS>ATOM
      1 CAA         -4.1820     5.9480     0.3120 c3         1 Z85      -0.049800
      2 CAB         -8.1720    -1.8230    -0.6540 c3         1 Z85      -0.080433
      3 CAC         -6.8510    -3.5030     0.6420 c3         1 Z85      -0.080433
      4 CAD         -6.5940    -3.3530    -1.8380 c3         1 Z85      -0.080433
      5 OAE         -1.5630    -2.2960     0.7000 o          1 Z85      -0.589100
      6 CAF         10.8480     1.9520    -0.2270 ca         1 Z85      -0.122000
      7 CAG          9.7080     2.6330     0.1860 ca         1 Z85      -0.133500
      8 CAH         10.7230     0.7720    -0.9450 ca         1 Z85      -0.133500
      9 CAI          8.4520     2.1340    -0.1210 ca         1 Z85      -0.106500
     10 CAJ          9.4610     0.2740    -1.2490 ca         1 Z85      -0.106500
     11 CAK         -5.0320     3.8760    -0.8360 ca         1 Z85      -0.122000
     12 CAL         -3.7010     3.6140     1.1310 ca         1 Z85      -0.122000
     13 CAM         -5.1510     2.5020    -0.9500 ca         1 Z85      -0.122500
     14 CAN         -3.8270     2.2330     1.0420 ca         1 Z85      -0.122500
     15 CAO          2.7310    -2.7370     1.4710 cc         1 Z85      -0.244400
     16 CAP         -4.3230    -1.8820    -0.2810 cc         1 Z85      -0.304300
     17 CAQ          5.0690    -0.5410    -0.1070 c3         1 Z85       0.139400
     18 CAS          6.9480     0.4090    -1.1450 c3         1 Z85       0.186700
     19 NAT          2.1470    -0.6320     0.7600 nd         1 Z85      -0.717000
     20 NAU         -5.8960    -0.2710    -0.2940 nd         1 Z85      -0.503800
     21 NAW         -0.1400    -0.5710     0.3680 ns         1 Z85      -0.553400
     22 OAX          6.3850    -0.0720     0.0540 os         1 Z85      -0.411600
     23 SAY          1.0270    -2.8880     1.2440 ss         1 Z85      -0.079300
     24 CAZ         -1.3840    -1.1410     0.3680 c          1 Z85       0.806100
     25 CBA         -4.3000     4.4570     0.2010 ca         1 Z85      -0.068300
     26 CBB          8.3150     0.9500    -0.8440 ca         1 Z85      -0.088300
     27 CBC          3.1430    -1.4820     1.1720 cd         1 Z85       0.382600
     28 CBD         -4.5450     1.6770    -0.0080 ca         1 Z85       0.001800
     29 CBE         -3.7040    -0.6660    -0.1250 cd         1 Z85       0.066300
     30 CBF         -5.6970    -1.5680    -0.3800 cc         1 Z85       0.343600
     31 CBG          1.0010    -1.2300     0.7500 cc         1 Z85       0.548300
     32 NBH         -4.6800     0.2770    -0.1210 na         1 Z85       0.133300
     33 HAA         -5.1390     6.3960     0.5870 hc         1 Z85       0.046700
     34 HAAA        -3.4540     6.2350     1.0690 hc         1 Z85       0.046700
     35 HAAB        -3.8790     6.3950    -0.6350 hc         1 Z85       0.046700
     36 HAB         -8.3880    -1.2440     0.2440 hc         1 Z85       0.037033
     37 HABA        -8.2050    -1.1430    -1.5060 hc         1 Z85       0.037033
     38 HABB        -8.9730    -2.5540    -0.7810 hc         1 Z85       0.037033
     39 HAC         -5.9220    -4.0710     0.7170 hc         1 Z85       0.037033
     40 HACA        -6.9920    -2.9650     1.5800 hc         1 Z85       0.037033
     41 HACB        -7.6700    -4.2170     0.5350 hc         1 Z85       0.037033
     42 HAD         -7.3900    -4.0890    -1.9740 hc         1 Z85       0.037033
     43 HADA        -6.5770    -2.7080    -2.7180 hc         1 Z85       0.037033
     44 HADB        -5.6480    -3.8970    -1.8040 hc         1 Z85       0.037033
     45 HAG          9.8010     3.5560     0.7440 ha         1 Z85       0.130000
     46 HAH         11.6060     0.2360    -1.2680 ha         1 Z85       0.130000
     47 HAI          7.5670     2.6730     0.1980 ha         1 Z85       0.131000
     48 HAJ          9.3690    -0.6490    -1.8110 ha         1 Z85       0.131000
     49 HAK         -5.5090     4.5070    -1.5760 ha         1 Z85       0.137500
     50 HAL         -3.1380     4.0370     1.9540 ha         1 Z85       0.137500
     51 HAM         -5.7100     2.0670    -1.7680 ha         1 Z85       0.150500
     52 HAN         -3.3770     1.6040     1.7990 ha         1 Z85       0.150500
     53 HAO          3.3230    -3.5710     1.8120 h4         1 Z85       0.180000
     54 HAP         -3.8650    -2.8530    -0.3340 ha         1 Z85       0.185000
     55 HAQ          5.0360    -1.3870    -0.8090 h1         1 Z85       0.029200
     56 HAQA         4.4240     0.2450    -0.5230 h1         1 Z85       0.029200
     57 HAS          7.0130    -0.3900    -1.8970 h1         1 Z85       0.027200
     58 HASA         6.3160     1.1990    -1.5730 h1         1 Z85       0.027200
     59 HNAW        -0.0060     0.3950     0.1030 hn         1 Z85       0.338500
     60 CBI         -6.8290    -2.5450    -0.5560 c3         1 Z85      -0.073300
     61 NAV         -2.3750    -0.2950    -0.0330 ns         1 Z85      -0.473100
     62 CAR          4.5460    -0.9780     1.2530 c3         1 Z85      -0.104700
     63 HAF         11.8290     2.3440     0.0080 ha         1 Z85       0.129000
     64 HAR          5.1890    -1.7600     1.6610 hc         1 Z85       0.065700
     65 HARA         4.5890    -0.1290     1.9420 hc         1 Z85       0.065700
     66 HNAV        -2.1370     0.6450    -0.3160 hn         1 Z85       0.333500
@<TRIPOS>BOND
     1     1    25 1   
     2     1    33 1   
     3     1    34 1   
     4     1    35 1   
     5     2    36 1   
     6     2    37 1   
     7     2    38 1   
     8     2    60 1   
     9     3    39 1   
    10     3    40 1   
    11     3    41 1   
    12     3    60 1   
    13     4    42 1   
    14     4    43 1   
    15     4    44 1   
    16     4    60 1   
    17     5    24 2   
    18     6     7 ar  
    19     6     8 ar  
    20     6    63 1   
    21     7     9 ar  
    22     7    45 1   
    23     8    10 ar  
    24     8    46 1   
    25     9    26 ar  
    26     9    47 1   
    27    10    26 ar  
    28    10    48 1   
    29    11    13 ar  
    30    11    25 ar  
    31    11    49 1   
    32    12    14 ar  
    33    12    25 ar  
    34    12    50 1   
    35    13    28 ar  
    36    13    51 1   
    37    14    28 ar  
    38    14    52 1   
    39    15    23 1   
    40    15    27 2   
    41    15    53 1   
    42    16    29 2   
    43    16    30 1   
    44    16    54 1   
    45    17    22 1   
    46    17    55 1   
    47    17    56 1   
    48    17    62 1   
    49    18    22 1   
    50    18    26 1   
    51    18    57 1   
    52    18    58 1   
    53    19    27 1   
    54    19    31 2   
    55    20    30 2   
    56    20    32 1   
    57    21    24 1   
    58    21    31 1   
    59    21    59 1   
    60    23    31 1   
    61    24    61 1   
    62    27    62 1   
    63    28    32 1   
    64    29    32 1   
    65    29    61 1   
    66    30    60 1   
    67    61    66 1   
    68    62    64 1   
    69    62    65 1   
@<TRIPOS>SUBSTRUCTURE
     1 Z85         1 TEMP              0 ****  ****    0 ROOT
