@<TRIPOS>MOLECULE
Z85
   66    69     1     0     0
SMALL
No Charge or Current Charge


@<TRIPOS>ATOM
      1 CAA         -3.2030     5.7520     0.2240 c3         1 Z85      -0.049800
      2 CAB         -8.4980    -1.8790    -0.5710 c3         1 Z85      -0.080433
      3 CAC         -7.1290    -3.4680     0.8260 c3         1 Z85      -0.080433
      4 CAD         -6.8190    -3.3910    -1.6870 c3         1 Z85      -0.080433
      5 OAE         -1.7730    -2.6810     0.2360 o          1 Z85      -0.589100
      6 CAF         10.7830     2.2860     0.0080 ca         1 Z85      -0.104000
      7 CAG          9.6450     3.1080     0.0540 ca         1 Z85      -0.115500
      8 CAH         10.6690     0.9550    -0.4290 ca         1 Z85      -0.115500
      9 CAI          8.3930     2.6020    -0.3380 ca         1 Z85      -0.088500
     10 CAJ          9.4170     0.4480    -0.8210 ca         1 Z85      -0.088500
     11 CAK         -3.9300     3.7080    -1.0980 ca         1 Z85      -0.104000
     12 CAL         -3.8140     3.5460     1.3260 ca         1 Z85      -0.104000
     13 CAM         -4.3520     2.3690    -1.1680 ca         1 Z85      -0.104500
     14 CAN         -4.2360     2.2070     1.2570 ca         1 Z85      -0.104500
     15 CAO          2.8510    -2.9620     0.7720 cc         1 Z85      -0.306000
     16 CAP         -4.6320    -1.8540    -0.0900 cc         1 Z85      -0.221000
     17 CAQ          4.9720    -0.4050    -0.3240 c3         1 Z85       0.162600
     18 CAS          6.9180     0.7200    -1.2070 c3         1 Z85       0.209900
     19 NAT          1.9470    -0.8170     0.7130 nd         1 Z85      -0.717000
     20 NAU         -6.1970    -0.1870    -0.2410 nd         1 Z85      -0.503800
     21 NAW         -0.3240    -0.9350     0.4450 ns         1 Z85      -0.486400
     22 OAX          6.2680     0.1530    -0.0570 os         1 Z85      -0.458000
     23 SAY          1.1600    -3.3080     0.5650 ss         1 Z85       0.065600
     24 CAZ         -1.5650    -1.4820     0.2880 c          1 Z85       0.672100
     25 CBA         -3.6560     4.3020     0.1490 ca         1 Z85      -0.068300
     26 CBB          8.2730     1.2690    -0.7790 ca         1 Z85      -0.088300
     27 CBC          3.0790    -1.6080     0.8260 cd         1 Z85       0.317300
     28 CBD         -4.5040     1.6120     0.0090 ca         1 Z85       0.001800
     29 CBE         -3.9220    -0.7000     0.0290 cd         1 Z85       0.015600
     30 CBF         -5.9940    -1.4970    -0.2500 cc         1 Z85       0.278300
     31 CBG          0.8770    -1.5780     0.5710 cc         1 Z85       0.548300
     32 NBH         -4.9110     0.2810    -0.0620 na         1 Z85       0.184000
     33 HAA         -4.0630     6.4260     0.3110 hc         1 Z85       0.046700
     34 HAAA        -2.5530     5.9240     1.0900 hc         1 Z85       0.046700
     35 HAAB        -2.6390     6.0420    -0.6710 hc         1 Z85       0.046700
     36 HAB         -8.7480    -1.2780     0.3120 hc         1 Z85       0.037033
     37 HABA        -8.5310    -1.2240    -1.4500 hc         1 Z85       0.037033
     38 HABB        -9.2810    -2.6380    -0.6900 hc         1 Z85       0.037033
     39 HAC         -6.1830    -4.0090     0.9450 hc         1 Z85       0.037033
     40 HACA        -7.3030    -2.8860     1.7390 hc         1 Z85       0.037033
     41 HACB        -7.9300    -4.2130     0.7410 hc         1 Z85       0.037033
     42 HAD         -7.6100    -4.1340    -1.8440 hc         1 Z85       0.037033
     43 HADA        -6.7700    -2.7530    -2.5780 hc         1 Z85       0.037033
     44 HADB        -5.8670    -3.9290    -1.6050 hc         1 Z85       0.037033
     45 HAG          9.7320     4.1380     0.3940 ha         1 Z85       0.112000
     46 HAH         11.5490     0.3170    -0.4640 ha         1 Z85       0.112000
     47 HAI          7.5160     3.2440    -0.2980 ha         1 Z85       0.113000
     48 HAJ          9.3360    -0.5840    -1.1570 ha         1 Z85       0.113000
     49 HAK         -3.8160     4.2840    -2.0140 ha         1 Z85       0.119500
     50 HAL         -3.6110     3.9960     2.2950 ha         1 Z85       0.119500
     51 HAM         -4.5590     1.9170    -2.1350 ha         1 Z85       0.132500
     52 HAN         -4.3550     1.6300     2.1720 ha         1 Z85       0.132500
     53 HAO          3.5640    -3.7710     0.8390 h4         1 Z85       0.162000
     54 HAP         -4.2570    -2.8700    -0.0740 ha         1 Z85       0.167000
     55 HAQ          5.0420    -1.2150    -1.0620 h1         1 Z85       0.029200
     56 HAQA         4.2900     0.3630    -0.7130 h1         1 Z85       0.029200
     57 HAS          7.0590    -0.0410    -1.9860 h1         1 Z85       0.027200
     58 HASA         6.3110     1.5310    -1.6330 h1         1 Z85       0.027200
     59 HNAW        -0.2770     0.0700     0.4740 hn         1 Z85       0.338500
     60 CBI         -7.0970    -2.5410    -0.4180 c3         1 Z85      -0.073300
     61 NAV         -2.5520    -0.5250     0.1950 ns         1 Z85      -0.406100
     62 CAR          4.4230    -0.9620     0.9990 c3         1 Z85      -0.104700
     63 HAF         11.7510     2.6780     0.3120 ha         1 Z85       0.111000
     64 HAR          5.1350    -1.6900     1.4040 hc         1 Z85       0.065700
     65 HARA         4.3540    -0.1490     1.7310 hc         1 Z85       0.065700
     66 HNAV        -2.2110     0.4260     0.2560 hn         1 Z85       0.333500
@<TRIPOS>BOND
     1     1    25 1   
     2     1    33 1   
     3     1    34 1   
     4     1    35 1   
     5     2    36 1   
     6     2    37 1   
     7     2    38 1   
     8     2    60 1   
     9     3    39 1   
    10     3    40 1   
    11     3    41 1   
    12     3    60 1   
    13     4    42 1   
    14     4    43 1   
    15     4    44 1   
    16     4    60 1   
    17     5    24 2   
    18     6     7 ar  
    19     6     8 ar  
    20     6    63 1   
    21     7     9 ar  
    22     7    45 1   
    23     8    10 ar  
    24     8    46 1   
    25     9    26 ar  
    26     9    47 1   
    27    10    26 ar  
    28    10    48 1   
    29    11    13 ar  
    30    11    25 ar  
    31    11    49 1   
    32    12    14 ar  
    33    12    25 ar  
    34    12    50 1   
    35    13    28 ar  
    36    13    51 1   
    37    14    28 ar  
    38    14    52 1   
    39    15    23 1   
    40    15    27 2   
    41    15    53 1   
    42    16    29 2   
    43    16    30 1   
    44    16    54 1   
    45    17    22 1   
    46    17    55 1   
    47    17    56 1   
    48    17    62 1   
    49    18    22 1   
    50    18    26 1   
    51    18    57 1   
    52    18    58 1   
    53    19    27 1   
    54    19    31 2   
    55    20    30 2   
    56    20    32 1   
    57    21    24 1   
    58    21    31 1   
    59    21    59 1   
    60    23    31 1   
    61    24    61 1   
    62    27    62 1   
    63    28    32 1   
    64    29    32 1   
    65    29    61 1   
    66    30    60 1   
    67    61    66 1   
    68    62    64 1   
    69    62    65 1   
@<TRIPOS>SUBSTRUCTURE
     1 Z85         1 TEMP              0 ****  ****    0 ROOT
