@<TRIPOS>MOLECULE
Z86
   68    71     1     0     0
SMALL
No Charge or Current Charge


@<TRIPOS>ATOM
      1 CAA         -6.0440     4.8820    -0.8490 c3         1 Z86      -0.078767
      2 CAB         -5.7180     4.8500     1.6630 c3         1 Z86      -0.078767
      3 CAC         -7.5980     3.5410     0.6130 c3         1 Z86      -0.078767
      4 CAG         10.9290    -3.2300     0.0470 ca         1 Z86      -0.106000
      5 CAH          9.6890    -3.8900     0.0320 ca         1 Z86      -0.117000
      6 CAI         11.0020    -1.8840     0.4430 ca         1 Z86      -0.117000
      7 CAJ          8.5220    -3.2060     0.4140 ca         1 Z86      -0.087500
      8 CAK          9.8350    -1.1980     0.8250 ca         1 Z86      -0.087500
      9 CAL         -3.8160    -2.5880     1.3070 ca         1 Z86      -0.108000
     10 CAM         -3.7090    -2.5270    -1.1200 ca         1 Z86      -0.108000
     11 CAN         -4.0520    -1.2020     1.3330 ca         1 Z86      -0.109000
     12 CAO         -3.9450    -1.1410    -1.0970 ca         1 Z86      -0.109000
     13 CAP          3.7820     3.0290    -0.8460 cc         1 Z86      -0.318000
     14 CAQ         -3.7760     2.9810     0.1070 cc         1 Z86      -0.244000
     15 CAR          5.5440     0.2400     0.3230 c3         1 Z86       0.160600
     16 CAT          7.3250    -1.1150     1.2310 c3         1 Z86       0.208900
     17 NAV          2.5940     1.0320    -0.7050 nd         1 Z86      -0.721000
     18 NAW         -5.5480     1.5450     0.3280 nd         1 Z86      -0.488800
     19 NAX         -1.8970     1.3730    -0.1440 ns         1 Z86      -0.394100
     20 OAZ          6.7490    -0.4980     0.0680 os         1 Z86      -0.460000
     21 SBA          2.1560     3.6100    -0.6390 ss         1 Z86       0.056600
     22 CBB         -4.7200    -5.5080    -0.0230 c          1 Z86       0.727000
     23 CBC         -0.7890     2.1820    -0.2780 c          1 Z86       0.672100
     24 CBD          8.5890    -1.8560     0.8140 ca         1 Z86      -0.084300
     25 CBE         -3.6420    -3.2600     0.0810 ca         1 Z86       0.030700
     26 CBF          3.8230     1.6560    -0.8540 cd         1 Z86       0.317300
     27 CBG         -4.1160    -0.4730     0.1310 ca         1 Z86      -0.058200
     28 CBH         -5.1720     2.8150     0.2890 cc         1 Z86       0.255300
     29 CBI         -3.2290     1.7380     0.0250 cd         1 Z86       0.009600
     30 CBJ          1.6390     1.9360    -0.5820 cc         1 Z86       0.564300
     31 NBK         -4.3390     0.9030     0.1570 na         1 Z86       0.209000
     32 CBL         -6.1230     4.0030     0.4270 c3         1 Z86      -0.068300
     33 HAA         -5.0350     5.2860    -0.9940 hc         1 Z86       0.033700
     34 HAAA        -6.3050     4.2970    -1.7400 hc         1 Z86       0.033700
     35 HAAB        -6.7370     5.7310    -0.7850 hc         1 Z86       0.033700
     36 HAB         -6.4000     5.6980     1.7990 hc         1 Z86       0.033700
     37 HABA        -5.7440     4.2430     2.5750 hc         1 Z86       0.033700
     38 HABB        -4.7030     5.2530     1.5550 hc         1 Z86       0.033700
     39 HAC         -7.9370     2.9490    -0.2460 hc         1 Z86       0.033700
     40 HACA        -7.7080     2.9280     1.5160 hc         1 Z86       0.033700
     41 HACB        -8.2700     4.4030     0.7110 hc         1 Z86       0.033700
     42 HAI         11.9610    -1.3710     0.4540 ha         1 Z86       0.110500
     43 HAJ          7.5650    -3.7230     0.3980 ha         1 Z86       0.114500
     44 HAK          9.8980    -0.1560     1.1290 ha         1 Z86       0.114500
     45 HAL         -3.7700    -3.1420     2.2420 ha         1 Z86       0.118500
     46 HAM         -3.5800    -3.0330    -2.0740 ha         1 Z86       0.118500
     47 HAN         -4.1850    -0.6950     2.2860 ha         1 Z86       0.111000
     48 HAO         -3.9960    -0.5870    -2.0320 ha         1 Z86       0.111000
     49 HAP          4.5980     3.7310    -0.9460 h4         1 Z86       0.155000
     50 HAQ         -3.2670     3.9350     0.0520 ha         1 Z86       0.159000
     51 HAR          5.7300     1.0550     1.0350 h1         1 Z86       0.031700
     52 HARA         4.7660    -0.4150     0.7390 h1         1 Z86       0.031700
     53 HAT          7.5760    -0.3580     1.9860 h1         1 Z86       0.028700
     54 HATA         6.6180    -1.8220     1.6850 h1         1 Z86       0.028700
     55 HNAX        -1.6920     0.3830    -0.1750 hn         1 Z86       0.342500
     56 NAY          0.3640     1.4670    -0.4260 ns         1 Z86      -0.486400
     57 HAG         11.8320    -3.7600    -0.2490 ha         1 Z86       0.108000
     58 HNAY         0.2760     0.4650    -0.4200 hn         1 Z86       0.344500
     59 CAU         -3.3820    -4.7620     0.0550 c3         1 Z86      -0.201100
     60 OAE         -0.8300     3.3990    -0.2670 o          1 Z86      -0.603100
     61 CAS          5.0640     0.8270    -1.0140 c3         1 Z86      -0.102700
     62 OAD         -5.2010    -5.7090    -1.1280 o          1 Z86      -0.717500
     63 OAF         -5.2960    -5.7640     1.0240 o          1 Z86      -0.717500
     64 HAH          9.6320    -4.9320    -0.2760 ha         1 Z86       0.110500
     65 HAS          5.8650     1.4390    -1.4440 hc         1 Z86       0.062700
     66 HASA         4.8770     0.0090    -1.7200 hc         1 Z86       0.062700
     67 HAU         -2.8620    -5.0160     0.9860 hc         1 Z86       0.035700
     68 HAUA        -2.7810    -4.9700    -0.8390 hc         1 Z86       0.035700
@<TRIPOS>BOND
     1     1    32 1   
     2     1    33 1   
     3     1    34 1   
     4     1    35 1   
     5     2    32 1   
     6     2    36 1   
     7     2    37 1   
     8     2    38 1   
     9     3    32 1   
    10     3    39 1   
    11     3    40 1   
    12     3    41 1   
    13     4     5 ar  
    14     4     6 ar  
    15     4    57 1   
    16     5     7 ar  
    17     5    64 1   
    18     6     8 ar  
    19     6    42 1   
    20     7    24 ar  
    21     7    43 1   
    22     8    24 ar  
    23     8    44 1   
    24     9    11 ar  
    25     9    25 ar  
    26     9    45 1   
    27    10    12 ar  
    28    10    25 ar  
    29    10    46 1   
    30    11    27 ar  
    31    11    47 1   
    32    12    27 ar  
    33    12    48 1   
    34    13    21 1   
    35    13    26 2   
    36    13    49 1   
    37    14    28 1   
    38    14    29 2   
    39    14    50 1   
    40    15    20 1   
    41    15    51 1   
    42    15    52 1   
    43    15    61 1   
    44    16    20 1   
    45    16    24 1   
    46    16    53 1   
    47    16    54 1   
    48    17    26 1   
    49    17    30 2   
    50    18    28 2   
    51    18    31 1   
    52    19    23 1   
    53    19    29 1   
    54    19    55 1   
    55    21    30 1   
    56    22    59 1   
    57    22    62 1   
    58    22    63 1   
    59    23    56 1   
    60    23    60 2   
    61    25    59 1   
    62    26    61 1   
    63    27    31 1   
    64    28    32 1   
    65    29    31 1   
    66    30    56 1   
    67    56    58 1   
    68    59    67 1   
    69    59    68 1   
    70    61    65 1   
    71    61    66 1   
@<TRIPOS>SUBSTRUCTURE
     1 Z86         1 TEMP              0 ****  ****    0 ROOT
