@<TRIPOS>MOLECULE
Z86
   68    71     1     0     0
SMALL
abcg2


@<TRIPOS>ATOM
      1 CAA         -6.0730     4.6330    -1.0580 c3         1 Z86      -0.078767
      2 CAB         -5.4820     5.0080     1.3440 c3         1 Z86      -0.078767
      3 CAC         -7.3000     3.4100     0.7440 c3         1 Z86      -0.078767
      4 CAG         10.9860    -2.9600     0.0400 ca         1 Z86      -0.106000
      5 CAH          9.8050    -3.6040    -0.3070 ca         1 Z86      -0.117000
      6 CAI         10.9380    -1.7580     0.7340 ca         1 Z86      -0.117000
      7 CAJ          8.5820    -3.0460     0.0400 ca         1 Z86      -0.087500
      8 CAK          9.7130    -1.2040     1.0790 ca         1 Z86      -0.087500
      9 CAL         -4.5580    -2.4950     1.4690 ca         1 Z86      -0.108000
     10 CAM         -3.5320    -2.6390    -0.6810 ca         1 Z86      -0.108000
     11 CAN         -4.5820    -1.1130     1.3800 ca         1 Z86      -0.109000
     12 CAO         -3.5640    -1.2580    -0.7960 ca         1 Z86      -0.109000
     13 CAP          3.7360     3.1240    -0.8700 cc         1 Z86      -0.318000
     14 CAQ         -3.5270     3.0350     0.0050 cc         1 Z86      -0.244000
     15 CAR          5.5820     0.2440     0.2120 c3         1 Z86       0.160600
     16 CAT          7.1990    -1.2210     1.0700 c3         1 Z86       0.208900
     17 NAV          2.8030     1.0320    -0.7040 nd         1 Z86      -0.721000
     18 NAW         -5.2360     1.6010     0.3200 nd         1 Z86      -0.488800
     19 NAX         -1.7600     1.2320    -0.1540 ns         1 Z86      -0.394100
     20 OAZ          6.8220    -0.3850    -0.0020 os         1 Z86      -0.460000
     21 SBA          2.0590     3.4870    -0.6840 ss         1 Z86       0.056600
     22 CBB         -5.1740    -5.4890    -0.1580 c          1 Z86       0.727000
     23 CBC         -0.6390     1.9850    -0.3360 c          1 Z86       0.672100
     24 CBD          8.5240    -1.8430     0.7390 ca         1 Z86      -0.084300
     25 CBE         -4.0240    -3.2840     0.4510 ca         1 Z86       0.030700
     26 CBF          3.9390     1.7850    -0.8610 cd         1 Z86       0.317300
     27 CBG         -4.0790    -0.4920     0.2440 ca         1 Z86      -0.058200
     28 CBH         -4.9130     2.8720     0.2260 cc         1 Z86       0.255300
     29 CBI         -3.0330     1.7520    -0.0240 cd         1 Z86       0.009600
     30 CBJ          1.7570     1.7850    -0.5980 cc         1 Z86       0.564300
     31 NBK         -4.0880     0.9180     0.1550 na         1 Z86       0.209000
     32 CBL         -5.9430     3.9680     0.3170 c3         1 Z86      -0.068300
     33 HAA         -5.1200     5.0410    -1.3970 hc         1 Z86       0.033700
     34 HAAA        -6.4180     3.9200    -1.8080 hc         1 Z86       0.033700
     35 HAAB        -6.7920     5.4550    -1.0200 hc         1 Z86       0.033700
     36 HAB         -6.2100     5.8190     1.4170 hc         1 Z86       0.033700
     37 HABA        -5.3750     4.5650     2.3360 hc         1 Z86       0.033700
     38 HABB        -4.5230     5.4510     1.0700 hc         1 Z86       0.033700
     39 HAC         -7.6740     2.6660     0.0410 hc         1 Z86       0.033700
     40 HACA        -7.2480     2.9430     1.7280 hc         1 Z86       0.033700
     41 HACB        -8.0310     4.2180     0.7950 hc         1 Z86       0.033700
     42 HAI         11.8550    -1.2530     1.0060 ha         1 Z86       0.110500
     43 HAJ          7.6630    -3.5540    -0.2270 ha         1 Z86       0.114500
     44 HAK          9.6810    -0.2680     1.6250 ha         1 Z86       0.114500
     45 HAL         -4.9510    -2.9710     2.3600 ha         1 Z86       0.118500
     46 HAM         -3.1150    -3.2210    -1.4930 ha         1 Z86       0.118500
     47 HAN         -4.9840    -0.5190     2.1900 ha         1 Z86       0.111000
     48 HAO         -3.2020    -0.7820    -1.7000 ha         1 Z86       0.111000
     49 HAP          4.4680     3.9090    -0.9780 h4         1 Z86       0.155000
     50 HAQ         -2.9790     3.9520    -0.1090 ha         1 Z86       0.159000
     51 HAR          5.6130     0.8730     1.1130 h1         1 Z86       0.031700
     52 HARA         4.7900    -0.5000     0.3680 h1         1 Z86       0.031700
     53 HAT          7.2700    -0.6440     2.0020 h1         1 Z86       0.028700
     54 HATA         6.4440    -2.0020     1.2330 h1         1 Z86       0.028700
     55 HNAX        -1.6620     0.2310    -0.0610 hn         1 Z86       0.342500
     56 NAY          0.5090     1.2440    -0.4230 ns         1 Z86      -0.486400
     57 HAG         11.9400    -3.3960    -0.2250 ha         1 Z86       0.108000
     58 HNAY         0.4850     0.2350    -0.3740 hn         1 Z86       0.344500
     59 CAU         -4.0000    -4.7730     0.5620 c3         1 Z86      -0.201100
     60 OAE         -0.6300     3.1980    -0.4160 o          1 Z86      -0.603100
     61 CAS          5.2570     1.0960    -1.0050 c3         1 Z86      -0.102700
     62 OAD         -5.9070    -4.8010    -0.8870 o          1 Z86      -0.717500
     63 OAF         -5.2560    -6.7130     0.0580 o          1 Z86      -0.717500
     64 HAH          9.8360    -4.5430    -0.8460 ha         1 Z86       0.110500
     65 HAS          6.0400     1.8420    -1.1550 hc         1 Z86       0.062700
     66 HASA         5.2380     0.4590    -1.8940 hc         1 Z86       0.062700
     67 HAU         -3.9950    -5.0740     1.6130 hc         1 Z86       0.035700
     68 HAUA        -3.0700    -5.1620     0.1360 hc         1 Z86       0.035700
@<TRIPOS>BOND
     1     1    32 1   
     2     1    33 1   
     3     1    34 1   
     4     1    35 1   
     5     2    32 1   
     6     2    36 1   
     7     2    37 1   
     8     2    38 1   
     9     3    32 1   
    10     3    39 1   
    11     3    40 1   
    12     3    41 1   
    13     4     5 ar  
    14     4     6 ar  
    15     4    57 1   
    16     5     7 ar  
    17     5    64 1   
    18     6     8 ar  
    19     6    42 1   
    20     7    24 ar  
    21     7    43 1   
    22     8    24 ar  
    23     8    44 1   
    24     9    11 ar  
    25     9    25 ar  
    26     9    45 1   
    27    10    12 ar  
    28    10    25 ar  
    29    10    46 1   
    30    11    27 ar  
    31    11    47 1   
    32    12    27 ar  
    33    12    48 1   
    34    13    21 1   
    35    13    26 2   
    36    13    49 1   
    37    14    28 1   
    38    14    29 2   
    39    14    50 1   
    40    15    20 1   
    41    15    51 1   
    42    15    52 1   
    43    15    61 1   
    44    16    20 1   
    45    16    24 1   
    46    16    53 1   
    47    16    54 1   
    48    17    26 1   
    49    17    30 2   
    50    18    28 2   
    51    18    31 1   
    52    19    23 1   
    53    19    29 1   
    54    19    55 1   
    55    21    30 1   
    56    22    59 1   
    57    22    62 1   
    58    22    63 1   
    59    23    56 1   
    60    23    60 2   
    61    25    59 1   
    62    26    61 1   
    63    27    31 1   
    64    28    32 1   
    65    29    31 1   
    66    30    56 1   
    67    56    58 1   
    68    59    67 1   
    69    59    68 1   
    70    61    65 1   
    71    61    66 1   
@<TRIPOS>SUBSTRUCTURE
     1 Z86         1 TEMP              0 ****  ****    0 ROOT
