@<TRIPOS>MOLECULE
Z87
   46    48     1     0     0
SMALL
No Charge or Current Charge


@<TRIPOS>ATOM
      1 CAA         -1.2400     4.7210    -1.4440 c3         1 Z87      -0.080433
      2 CAB         -1.2880     4.7930     1.0870 c3         1 Z87      -0.080433
      3 CAC         -3.4290     4.5190    -0.2130 c3         1 Z87      -0.080433
      4 OAE          2.3290     0.8690    -0.0000 o          1 Z87      -0.589100
      5 CAL         -3.4910    -2.5710     1.2390 ca         1 Z87      -0.104000
      6 CAM         -3.0740    -2.8270    -1.1420 ca         1 Z87      -0.104000
      7 CAN         -2.9760    -1.2640     1.1900 ca         1 Z87      -0.104500
      8 CAO         -2.5590    -1.5190    -1.1930 ca         1 Z87      -0.104500
      9 CAP          6.1190    -1.8440     0.1760 cc         1 Z87      -0.312000
     10 CAQ         -0.4240     2.0430    -0.0870 cc         1 Z87      -0.215000
     11 NAV          4.0630    -2.9400     0.1790 nd         1 Z87      -0.713000
     12 NAW         -2.6960     1.7400    -0.1140 nd         1 Z87      -0.503800
     13 NAX          0.3640    -0.3130     0.0080 ns         1 Z87      -0.407100
     14 SBA          5.0140    -0.5030     0.1040 ss         1 Z87       0.061600
     15 CBC          1.7370    -0.1950     0.0300 c          1 Z87       0.670100
     16 CBE         -3.5400    -3.3600     0.0740 ca         1 Z87      -0.069300
     17 CBF          5.4470    -3.0430     0.2100 cd         1 Z87       0.302900
     18 CBG         -2.5060    -0.7340    -0.0260 ca         1 Z87       0.002800
     19 CBH         -1.7130     2.6300    -0.1260 cc         1 Z87       0.277300
     20 CBI         -0.5950     0.6930    -0.0480 cd         1 Z87       0.010600
     21 CBJ          3.7050    -1.6700     0.1240 cc         1 Z87       0.545300
     22 NBK         -1.9850     0.5580    -0.0720 na         1 Z87       0.190000
     23 CBL         -1.9190     4.1440    -0.1730 c3         1 Z87      -0.072300
     24 HAA         -0.1590     4.5380    -1.4370 hc         1 Z87       0.037256
     25 HAAA        -1.6550     4.2600    -2.3490 hc         1 Z87       0.037256
     26 HAAB        -1.3940     5.8050    -1.5150 hc         1 Z87       0.037256
     27 HAB         -1.4430     5.8790     1.0900 hc         1 Z87       0.037256
     28 HABA        -1.7370     4.3840     2.0010 hc         1 Z87       0.037256
     29 HABB        -0.2080     4.6100     1.1320 hc         1 Z87       0.037256
     30 HAC         -3.9180     4.0940    -1.0980 hc         1 Z87       0.037256
     31 HACA        -3.9510     4.1460     0.6770 hc         1 Z87       0.037256
     32 HACB        -3.5640     5.6070    -0.2470 hc         1 Z87       0.037256
     33 HAL         -3.8530    -2.9700     2.1850 ha         1 Z87       0.118500
     34 HAM         -3.1120    -3.4250    -2.0510 ha         1 Z87       0.118500
     35 HAN         -2.9410    -0.6610     2.0960 ha         1 Z87       0.133000
     36 HAO         -2.2010    -1.1160    -2.1380 ha         1 Z87       0.133000
     37 HAQ          0.5080     2.5940    -0.0860 ha         1 Z87       0.164000
     38 HNAX         0.0320    -1.2680     0.0380 hn         1 Z87       0.334500
     39 HBF          5.9100    -4.0210     0.2560 h4         1 Z87       0.040100
     40 CAU         -4.1000    -4.7730     0.1280 c3         1 Z87      -0.049800
     41 NAY          2.3630    -1.4070     0.0880 ns         1 Z87      -0.485400
     42 HAP          7.1850    -1.6680     0.1900 h4         1 Z87       0.161000
     43 HAU         -5.1800    -4.7720    -0.0620 hc         1 Z87       0.046367
     44 HAUA        -3.6290    -5.4190    -0.6220 hc         1 Z87       0.046367
     45 HAUB        -3.9330    -5.2330     1.1090 hc         1 Z87       0.046367
     46 HNAY         1.7660    -2.2180     0.1080 hn         1 Z87       0.339500
@<TRIPOS>BOND
     1     1    23 1   
     2     1    24 1   
     3     1    25 1   
     4     1    26 1   
     5     2    23 1   
     6     2    27 1   
     7     2    28 1   
     8     2    29 1   
     9     3    23 1   
    10     3    30 1   
    11     3    31 1   
    12     3    32 1   
    13     4    15 2   
    14     5     7 ar  
    15     5    16 ar  
    16     5    33 1   
    17     6     8 ar  
    18     6    16 ar  
    19     6    34 1   
    20     7    18 ar  
    21     7    35 1   
    22     8    18 ar  
    23     8    36 1   
    24     9    14 1   
    25     9    17 2   
    26     9    42 1   
    27    10    19 1   
    28    10    20 2   
    29    10    37 1   
    30    11    17 1   
    31    11    21 2   
    32    12    19 2   
    33    12    22 1   
    34    13    15 1   
    35    13    20 1   
    36    13    38 1   
    37    14    21 1   
    38    15    41 1   
    39    16    40 1   
    40    17    39 1   
    41    18    22 1   
    42    19    23 1   
    43    20    22 1   
    44    21    41 1   
    45    40    43 1   
    46    40    44 1   
    47    40    45 1   
    48    41    46 1   
@<TRIPOS>SUBSTRUCTURE
     1 Z87         1 TEMP              0 ****  ****    0 ROOT
