@<TRIPOS>MOLECULE
Z87
   46    48     1     0     0
SMALL
bcc


@<TRIPOS>ATOM
      1 CAA         -1.3640     4.5230    -1.4310 c3         1 Z87      -0.080433
      2 CAB         -1.2290     4.7880     1.0530 c3         1 Z87      -0.080433
      3 CAC         -3.4020     4.1860    -0.0240 c3         1 Z87      -0.080433
      4 OAE          2.3030     0.5750    -0.5380 o          1 Z87      -0.589100
      5 CAL         -4.2370    -2.1730     0.7510 ca         1 Z87      -0.122000
      6 CAM         -2.6520    -3.0350    -0.8130 ca         1 Z87      -0.122000
      7 CAN         -3.5510    -0.9710     0.7990 ca         1 Z87      -0.122500
      8 CAO         -1.9640    -1.8310    -0.7920 ca         1 Z87      -0.122500
      9 CAP          6.1310    -1.5640    -0.5780 cc         1 Z87      -0.250400
     10 CAQ         -0.2150     2.0190     0.2030 cc         1 Z87      -0.298300
     11 NAV          4.4510    -2.7240     0.4920 nd         1 Z87      -0.713000
     12 NAW         -2.4100     1.5850    -0.0340 nd         1 Z87      -0.503800
     13 NAX          0.4790    -0.3920     0.4310 ns         1 Z87      -0.474100
     14 SBA          4.7870    -0.4940    -0.7360 ss         1 Z87      -0.083300
     15 CBC          1.7890    -0.3530     0.0570 c          1 Z87       0.804100
     16 CBE         -3.8010    -3.2270    -0.0500 ca         1 Z87      -0.069300
     17 CBF          5.7590    -2.6760     0.0950 cd         1 Z87       0.368200
     18 CBG         -2.4100    -0.7990     0.0250 ca         1 Z87       0.002800
     19 CBH         -1.5150     2.5460     0.0360 cc         1 Z87       0.342600
     20 CBI         -0.3970     0.6590     0.2260 cd         1 Z87       0.061300
     21 CBJ          3.8280    -1.6510     0.1250 cc         1 Z87       0.545300
     22 NBK         -1.7250     0.4340     0.0610 na         1 Z87       0.139300
     23 CBL         -1.8860     4.0010    -0.0860 c3         1 Z87      -0.072300
     24 HAA         -0.2820     4.3980    -1.5150 hc         1 Z87       0.037256
     25 HAAA        -1.8280     3.9940    -2.2650 hc         1 Z87       0.037256
     26 HAAB        -1.5850     5.5860    -1.5400 hc         1 Z87       0.037256
     27 HAB         -1.4690     5.8500     0.9670 hc         1 Z87       0.037256
     28 HABA        -1.5770     4.4420     2.0270 hc         1 Z87       0.037256
     29 HABB        -0.1420     4.6970     1.0330 hc         1 Z87       0.037256
     30 HAC         -3.9080     3.6440    -0.8240 hc         1 Z87       0.037256
     31 HACA        -3.8120     3.8420     0.9260 hc         1 Z87       0.037256
     32 HACB        -3.6500     5.2440    -0.1290 hc         1 Z87       0.037256
     33 HAL         -5.1260    -2.2940     1.3590 ha         1 Z87       0.136500
     34 HAM         -2.2910    -3.8320    -1.4510 ha         1 Z87       0.136500
     35 HAN         -3.8990    -0.1690     1.4360 ha         1 Z87       0.151000
     36 HAO         -1.0960    -1.7000    -1.4250 ha         1 Z87       0.151000
     37 HAQ          0.7100     2.5580     0.3100 ha         1 Z87       0.182000
     38 HNAX         0.1310    -1.2000     0.9290 hn         1 Z87       0.334500
     39 HBF          6.4130    -3.5040     0.3310 h4         1 Z87       0.040100
     40 CAU         -4.5660    -4.5160    -0.1120 c3         1 Z87      -0.049800
     41 NAY          2.4980    -1.4700     0.4090 ns         1 Z87      -0.552400
     42 HAP          7.0990    -1.3140    -0.9820 h4         1 Z87       0.179000
     43 HAU         -5.3650    -4.4570    -0.8550 hc         1 Z87       0.046367
     44 HAUA        -3.9250    -5.3510    -0.3900 hc         1 Z87       0.046367
     45 HAUB        -5.0320    -4.7500     0.8450 hc         1 Z87       0.046367
     46 HNAY         2.0620    -2.2250     0.9200 hn         1 Z87       0.339500
@<TRIPOS>BOND
     1     1    23 1   
     2     1    24 1   
     3     1    25 1   
     4     1    26 1   
     5     2    23 1   
     6     2    27 1   
     7     2    28 1   
     8     2    29 1   
     9     3    23 1   
    10     3    30 1   
    11     3    31 1   
    12     3    32 1   
    13     4    15 2   
    14     5     7 ar  
    15     5    16 ar  
    16     5    33 1   
    17     6     8 ar  
    18     6    16 ar  
    19     6    34 1   
    20     7    18 ar  
    21     7    35 1   
    22     8    18 ar  
    23     8    36 1   
    24     9    14 1   
    25     9    17 2   
    26     9    42 1   
    27    10    19 1   
    28    10    20 2   
    29    10    37 1   
    30    11    17 1   
    31    11    21 2   
    32    12    19 2   
    33    12    22 1   
    34    13    15 1   
    35    13    20 1   
    36    13    38 1   
    37    14    21 1   
    38    15    41 1   
    39    16    40 1   
    40    17    39 1   
    41    18    22 1   
    42    19    23 1   
    43    20    22 1   
    44    21    41 1   
    45    40    43 1   
    46    40    44 1   
    47    40    45 1   
    48    41    46 1   
@<TRIPOS>SUBSTRUCTURE
     1 Z87         1 TEMP              0 ****  ****    0 ROOT
