@<TRIPOS>MOLECULE
Z88
   22    22     1     0     0
SMALL
No Charge or Current Charge


@<TRIPOS>ATOM
      1 CAA         -3.9580     2.4610     1.2290 c3         1 Z88      -0.182100
      2 OAB         -2.6230     2.0280    -0.7220 o          1 Z88      -0.549100
      3 OAC         -2.7820    -2.1990     0.5250 o          1 Z88      -0.526000
      4 OAD         -2.9280    -0.8840    -1.6670 o          1 Z88      -0.526000
      5 CAF          1.2970     0.3100    -1.1470 ca         1 Z88      -0.109000
      6 CAG          1.3900    -0.7780     1.0290 ca         1 Z88      -0.109000
      7 CAH         -0.0790     0.0350    -1.2290 ca         1 Z88      -0.003000
      8 CAI          0.0140    -1.0560     0.9540 ca         1 Z88      -0.003000
      9 NAJ         -3.2240     0.2540     0.5590 ns         1 Z88      -0.596300
     10 CAK         -3.2010     1.5750     0.2520 c          1 Z88       0.636100
     11 CAL          2.0290    -0.0970    -0.0190 ca         1 Z88       0.032100
     12 CAM         -0.7260    -0.6510    -0.1790 ca         1 Z88      -0.285500
     13 SAN         -2.4930    -1.0010    -0.2700 sy         1 Z88       1.185300
     14 HAA         -3.9200     3.5210     0.9530 hc         1 Z88       0.069367
     15 HAAA        -4.9890     2.1010     1.3130 hc         1 Z88       0.069367
     16 HAAB        -3.5670     2.2920     2.2390 hc         1 Z88       0.069367
     17 HAF          1.7940     0.8390    -1.9560 ha         1 Z88       0.136500
     18 HAG          1.9590    -1.0900     1.9020 ha         1 Z88       0.136500
     19 HAH         -0.6360     0.3620    -2.1070 ha         1 Z88       0.143500
     20 HAI         -0.4700    -1.5820     1.7760 ha         1 Z88       0.143500
     21 HNAJ        -3.6980    -0.0660     1.3860 hn         1 Z88       0.346500
     22 BrAE         3.9010     0.2800     0.0890 br         1 Z88      -0.079100
@<TRIPOS>BOND
     1     1    10 1   
     2     1    14 1   
     3     1    15 1   
     4     1    16 1   
     5     2    10 2   
     6     3    13 2   
     7     4    13 2   
     8     5     7 ar  
     9     5    11 ar  
    10     5    17 1   
    11     6     8 ar  
    12     6    11 ar  
    13     6    18 1   
    14     7    12 ar  
    15     7    19 1   
    16     8    12 ar  
    17     8    20 1   
    18     9    10 1   
    19     9    13 1   
    20     9    21 1   
    21    11    22 1   
    22    12    13 1   
@<TRIPOS>SUBSTRUCTURE
     1 Z88         1 TEMP              0 ****  ****    0 ROOT
