@<TRIPOS>MOLECULE
Z88
   22    22     1     0     0
SMALL
abcg2


@<TRIPOS>ATOM
      1 CAA         -3.8970     2.4130     1.2620 c3         1 Z88      -0.182100
      2 OAB         -2.5830     1.9560    -0.7030 o          1 Z88      -0.549100
      3 OAC         -2.7240    -2.2020     0.4130 o          1 Z88      -0.526000
      4 OAD         -2.8740    -0.8610    -1.7040 o          1 Z88      -0.526000
      5 CAF          1.2670     0.2950    -1.1500 ca         1 Z88      -0.109000
      6 CAG          1.3000    -0.7220     1.0480 ca         1 Z88      -0.109000
      7 CAH         -0.0890     0.0290    -1.2530 ca         1 Z88      -0.003000
      8 CAI         -0.0530    -0.9910     0.9420 ca         1 Z88      -0.003000
      9 NAJ         -3.1980     0.2080     0.5880 ns         1 Z88      -0.596300
     10 CAK         -3.1670     1.5510     0.2750 c          1 Z88       0.636100
     11 CAL          1.9480    -0.0810    -0.0010 ca         1 Z88       0.032100
     12 CAM         -0.7350    -0.6100    -0.2060 ca         1 Z88      -0.285500
     13 SAN         -2.4580    -0.9820    -0.3240 sy         1 Z88       1.185300
     14 HAA         -3.9230     3.4420     0.9130 hc         1 Z88       0.069367
     15 HAAA        -4.9160     2.0580     1.4110 hc         1 Z88       0.069367
     16 HAAB        -3.3940     2.3810     2.2300 hc         1 Z88       0.069367
     17 HAF          1.7750     0.7900    -1.9660 ha         1 Z88       0.136500
     18 HAG          1.8340    -1.0190     1.9400 ha         1 Z88       0.136500
     19 HAH         -0.6200     0.3200    -2.1470 ha         1 Z88       0.143500
     20 HAI         -0.5570    -1.4940     1.7560 ha         1 Z88       0.143500
     21 HNAJ        -3.6340    -0.1090     1.4460 hn         1 Z88       0.346500
     22 BRAE         3.7880     0.2800     0.1390 br         1 Z88      -0.079100
@<TRIPOS>BOND
     1     1    10 1   
     2     1    14 1   
     3     1    15 1   
     4     1    16 1   
     5     2    10 2   
     6     3    13 2   
     7     4    13 2   
     8     5     7 ar  
     9     5    11 ar  
    10     5    17 1   
    11     6     8 ar  
    12     6    11 ar  
    13     6    18 1   
    14     7    12 ar  
    15     7    19 1   
    16     8    12 ar  
    17     8    20 1   
    18     9    10 1   
    19     9    13 1   
    20     9    21 1   
    21    11    22 1   
    22    12    13 1   
@<TRIPOS>SUBSTRUCTURE
     1 Z88         1 TEMP              0 ****  ****    0 ROOT
