@<TRIPOS>MOLECULE
Z89
   33    35     1     0     0
SMALL
No Charge or Current Charge


@<TRIPOS>ATOM
      1 C           -4.0940     1.3320    -1.5440 c          1 Z89       0.726000
      2 N           -2.3050     0.0340    -0.2580 n          1 Z89      -0.168400
      3 OXT         -5.1950     1.8130    -1.3080 o          1 Z89      -0.731000
      4 CA          -2.9840     1.3570    -0.4480 c3         1 Z89      -0.023300
      5 CB          -3.4030     2.0030     0.9130 c3         1 Z89      -0.208400
      6 CG          -2.1800     2.2580     1.8000 c          1 Z89       0.709000
      7 CAA          3.0970    -2.2330    -0.0550 ca         1 Z89       0.055600
      8 CAB          2.0810    -1.3010     0.1140 ca         1 Z89      -0.046800
      9 CAC          2.4100     0.0020     0.5410 ca         1 Z89      -0.005000
     10 CAD          3.7750     0.3500     0.6540 ca         1 Z89      -0.052900
     11 BrAE         4.2520     2.1180     1.2040 br         1 Z89      -0.125100
     12 CAF          4.7930    -0.5970     0.4000 ca         1 Z89      -0.076000
     13 CAG          4.4540    -1.9210     0.0630 ca         1 Z89      -0.171000
     14 CAH          0.8030    -2.0280    -0.0470 cc         1 Z89      -0.148400
     15 CAI          1.1390    -3.4750    -0.2240 c          1 Z89       0.548200
     16 NAJ          2.5050    -3.4740    -0.2470 ns         1 Z89      -0.401100
     17 OAK          0.4280    -4.4560    -0.3770 o          1 Z89      -0.534000
     18 CAL         -0.4740    -1.4550    -0.1080 cd         1 Z89       0.033400
     19 CAM         -0.8950    -0.0550    -0.3330 c          1 Z89       0.590200
     20 CAW         -2.9840    -1.1640    -0.0730 cs         1 Z89       0.357000
     21 SAX         -4.6390    -1.3980     0.0870 s          1 Z89      -0.439400
     22 SAY         -1.8480    -2.5190     0.0390 ss         1 Z89      -0.049200
     23 OAZ         -0.1680     0.8890    -0.6150 o          1 Z89      -0.476000
     24 OD1         -1.8150     1.3680     2.5510 o          1 Z89      -0.763500
     25 OD2         -1.5980     3.3250     1.6840 o          1 Z89      -0.763500
     26 O           -3.7930     0.8760    -2.6390 o          1 Z89      -0.731000
     27 HA          -2.2500     2.0490    -0.8800 h1         1 Z89       0.068700
     28 HB          -3.8720     2.9620     0.6640 hc         1 Z89       0.054200
     29 HBA         -4.0830     1.2920     1.3960 hc         1 Z89       0.054200
     30 HAG          5.2210    -2.6800    -0.0770 ha         1 Z89       0.103000
     31 HNAJ         3.0400    -4.3270    -0.3610 hn         1 Z89       0.322500
     32 HAC          1.6610     0.7280     0.8300 ha         1 Z89       0.185000
     33 HAF          5.8380    -0.3150     0.5050 ha         1 Z89       0.108000
@<TRIPOS>BOND
     1     1     3 1   
     2     1     4 1   
     3     1    26 1   
     4     2     4 1   
     5     2    19 1   
     6     2    20 1   
     7     4     5 1   
     8     4    27 1   
     9     5     6 1   
    10     5    28 1   
    11     5    29 1   
    12     6    24 1   
    13     6    25 1   
    14     7     8 ar  
    15     7    13 ar  
    16     7    16 1   
    17     8     9 ar  
    18     8    14 1   
    19     9    10 ar  
    20     9    32 1   
    21    10    11 1   
    22    10    12 ar  
    23    12    13 ar  
    24    12    33 1   
    25    13    30 1   
    26    14    15 1   
    27    14    18 2   
    28    15    16 1   
    29    15    17 2   
    30    16    31 1   
    31    18    19 1   
    32    18    22 1   
    33    19    23 2   
    34    20    21 2   
    35    20    22 1   
@<TRIPOS>SUBSTRUCTURE
     1 Z89         1 TEMP              0 ****  ****    0 ROOT
