@<TRIPOS>MOLECULE
Z89
   33    35     1     0     0
SMALL
abcg2


@<TRIPOS>ATOM
      1 C           -3.7060     1.5750    -1.6010 c          1 Z89       0.726000
      2 N           -2.2400     0.1140    -0.2480 n          1 Z89      -0.168400
      3 OXT         -4.6270     2.4090    -1.5860 o          1 Z89      -0.731000
      4 CA          -2.9410     1.3950    -0.2610 c3         1 Z89      -0.023300
      5 CB          -3.7490     1.6210     1.0070 c3         1 Z89      -0.208400
      6 CG          -2.9830     1.4460     2.3300 c          1 Z89       0.709000
      7 CAA          3.1560    -2.1430     0.0920 ca         1 Z89       0.055600
      8 CAB          2.2150    -1.1030    -0.0210 ca         1 Z89      -0.046800
      9 CAC          2.6630     0.2120    -0.0490 ca         1 Z89      -0.005000
     10 CAD          4.0290     0.4470     0.0360 ca         1 Z89      -0.052900
     11 BRAE         4.6510     2.2300     0.0010 br         1 Z89      -0.125100
     12 CAF          4.9500    -0.5880     0.1440 ca         1 Z89      -0.076000
     13 CAG          4.5120    -1.9060     0.1730 ca         1 Z89      -0.171000
     14 CAH          0.9060    -1.7390    -0.0700 cc         1 Z89      -0.148400
     15 CAI          1.1670    -3.2110     0.0220 c          1 Z89       0.548200
     16 NAJ          2.5100    -3.3650     0.1100 ns         1 Z89      -0.401100
     17 OAK          0.3230    -4.0850     0.0150 o          1 Z89      -0.534000
     18 CAL         -0.3760    -1.3290    -0.1540 cd         1 Z89       0.033400
     19 CAM         -0.8600     0.0700    -0.2800 c          1 Z89       0.590200
     20 CAW         -2.8690    -1.0750    -0.2380 cs         1 Z89       0.357000
     21 SAX         -4.4730    -1.3870    -0.2990 s          1 Z89      -0.439400
     22 SAY         -1.7380    -2.4130    -0.1460 ss         1 Z89      -0.049200
     23 OAZ         -0.1560     1.0340    -0.4370 o          1 Z89      -0.476000
     24 OD1         -3.6650     1.5910     3.3660 o          1 Z89      -0.763500
     25 OD2         -1.7640     1.1870     2.2810 o          1 Z89      -0.763500
     26 O           -3.2770     0.9290    -2.5710 o          1 Z89      -0.731000
     27 HA          -2.1450     2.1420    -0.2780 h1         1 Z89       0.068700
     28 HB          -4.1290     2.6440     0.9650 hc         1 Z89       0.054200
     29 HBA         -4.6350     0.9850     1.0240 hc         1 Z89       0.054200
     30 HAG          5.2220    -2.7170     0.2590 ha         1 Z89       0.103000
     31 HNAJ         2.9690    -4.2600     0.1930 hn         1 Z89       0.322500
     32 HAC          1.9660     1.0280    -0.1350 ha         1 Z89       0.185000
     33 HAF          6.0100    -0.3830     0.2060 ha         1 Z89       0.108000
@<TRIPOS>BOND
     1     1     3 1   
     2     1     4 1   
     3     1    26 1   
     4     2     4 1   
     5     2    19 1   
     6     2    20 1   
     7     4     5 1   
     8     4    27 1   
     9     5     6 1   
    10     5    28 1   
    11     5    29 1   
    12     6    24 1   
    13     6    25 1   
    14     7     8 ar  
    15     7    13 ar  
    16     7    16 1   
    17     8     9 ar  
    18     8    14 1   
    19     9    10 ar  
    20     9    32 1   
    21    10    11 1   
    22    10    12 ar  
    23    12    13 ar  
    24    12    33 1   
    25    13    30 1   
    26    14    15 1   
    27    14    18 2   
    28    15    16 1   
    29    15    17 2   
    30    16    31 1   
    31    18    19 1   
    32    18    22 1   
    33    19    23 2   
    34    20    21 2   
    35    20    22 1   
@<TRIPOS>SUBSTRUCTURE
     1 Z89         1 TEMP              0 ****  ****    0 ROOT
