@<TRIPOS>MOLECULE
Z8A
  138   137     1     0     0
SMALL
No Charge or Current Charge


@<TRIPOS>ATOM
      1 C1          29.0840    33.0560    60.1920 c3         1 Z8A       0.142600
      2 C2          30.5640    33.1980    59.7180 c3         1 Z8A       0.124700
      3 C3          31.2100    34.5500    60.1890 c3         1 Z8A       0.174300
      4 C4          32.6980    34.8140    59.7720 c3         1 Z8A       0.150300
      5 C5          33.7630    33.8840    60.4070 c3         1 Z8A      -0.113400
      6 C6          35.2100    34.4110    60.2750 c3         1 Z8A      -0.081400
      7 O1          30.4420    35.6450    59.6580 oh         1 Z8A      -0.652000
      8 C7          45.2280    43.3480    61.1920 c3         1 Z8A      -0.088100
      9 C8          43.7230    43.0510    61.3340 c3         1 Z8A      -0.075400
     10 C9          43.3520    41.6030    60.9460 c3         1 Z8A      -0.075400
     11 C10         41.8430    41.3070    61.0890 c3         1 Z8A      -0.076400
     12 C11         41.4720    39.8590    60.7000 c3         1 Z8A      -0.075400
     13 C12         39.9610    39.5640    60.8460 c3         1 Z8A      -0.073400
     14 C13         39.5340    38.1520    60.3780 c3         1 Z8A      -0.076400
     15 C14         40.1020    36.9930    61.2360 c3         1 Z8A      -0.073400
     16 C15         39.6340    35.5820    60.8030 c3         1 Z8A      -0.075400
     17 C16         38.1300    35.3060    61.0380 c3         1 Z8A      -0.076400
     18 C17         37.7260    33.8530    60.6950 c3         1 Z8A      -0.076400
     19 C18         36.2450    33.5050    60.9850 c3         1 Z8A      -0.070400
     20 O2          32.8140    34.7930    58.3440 oh         1 Z8A      -0.641000
     21 O3          29.0000    32.8970    61.6230 oh         1 Z8A      -0.677000
     22 N1          31.3390    31.9980    60.0920 ns         1 Z8A      -0.500900
     23 C19         31.2170    30.7690    59.4860 c          1 Z8A       0.604100
     24 O4          30.4140    30.5590    58.5900 o          1 Z8A      -0.602100
     25 C20         32.1250    29.6690    60.0480 c3         1 Z8A      -0.156400
     26 C21         33.1730    29.1720    59.0200 c3         1 Z8A      -0.065400
     27 C22         34.2790    30.1990    58.6840 c3         1 Z8A      -0.079400
     28 C23         35.2660    29.6790    57.6100 c3         1 Z8A      -0.075400
     29 C24         36.5390    30.5360    57.4120 c3         1 Z8A      -0.070400
     30 C25         36.2920    32.0340    57.1230 c3         1 Z8A      -0.078400
     31 C26         37.5850    32.7810    56.7190 c3         1 Z8A      -0.079400
     32 C27         37.4240    34.3160    56.6920 c3         1 Z8A      -0.076400
     33 C28         38.6890    35.0600    56.2010 c3         1 Z8A      -0.073400
     34 C29         38.7210    36.5700    56.5560 c3         1 Z8A      -0.072400
     35 C30         37.4440    37.3730    56.2090 c3         1 Z8A      -0.075400
     36 C31         37.0910    37.4090    54.7010 c3         1 Z8A      -0.074400
     37 C32         35.7060    38.0260    54.3900 c3         1 Z8A      -0.074400
     38 C33         34.5260    37.1710    54.9080 c3         1 Z8A      -0.079400
     39 C34         33.1400    37.6560    54.4250 c3         1 Z8A      -0.072400
     40 C35         31.9520    36.8560    55.0170 c3         1 Z8A      -0.073400
     41 C36         32.0010    35.3420    54.7070 c3         1 Z8A      -0.078400
     42 C37         30.7530    34.5620    55.1790 c3         1 Z8A      -0.074400
     43 C38         30.8120    33.0530    54.8410 c3         1 Z8A      -0.070400
     44 C39         31.8270    32.2460    55.6900 c3         1 Z8A      -0.082400
     45 C40         31.9510    30.7590    55.2810 c3         1 Z8A      -0.071400
     46 C41         32.5440    30.4650    53.8750 c3         1 Z8A      -0.072400
     47 C42         34.0050    30.9340    53.6410 c3         1 Z8A      -0.073400
     48 C43         34.1520    32.3540    53.0420 c3         1 Z8A      -0.081400
     49 C44         35.6190    32.8040    52.9050 c3         1 Z8A      -0.092100
     50 H3O         28.0470    32.8000    61.8470 ho         1 Z8A       0.445000
     51 H11         28.5090    33.9340    59.8710 h1         1 Z8A       0.037700
     52 H12         28.6340    32.1860    59.6950 h1         1 Z8A       0.037700
     53 H21         30.5400    33.2340    58.6210 h1         1 Z8A       0.113700
     54 H31         31.1670    34.5770    61.2860 h1         1 Z8A       0.043700
     55 H41         32.9350    35.8270    60.1260 h1         1 Z8A       0.015700
     56 H51         33.5330    33.7560    61.4720 hc         1 Z8A       0.048700
     57 H52         33.7220    32.8940    59.9430 hc         1 Z8A       0.048700
     58 H61         35.4680    34.5000    59.2150 hc         1 Z8A       0.039700
     59 H62         35.2610    35.4200    60.7020 hc         1 Z8A       0.039700
     60 H1O         30.8860    35.8720    58.8100 ho         1 Z8A       0.442000
     61 H71         45.4420    44.3840    61.4780 hc         1 Z8A       0.031367
     62 H72         45.8170    42.6850    61.8380 hc         1 Z8A       0.031367
     63 H73         45.5560    43.2030    60.1550 hc         1 Z8A       0.031367
     64 H81         43.4190    43.2390    62.3710 hc         1 Z8A       0.036700
     65 H82         43.1610    43.7520    60.7040 hc         1 Z8A       0.036700
     66 H91         43.6590    41.4190    59.9090 hc         1 Z8A       0.036700
     67 H92         43.9170    40.9060    61.5760 hc         1 Z8A       0.036700
     68 H101        41.5360    41.4910    62.1260 hc         1 Z8A       0.036200
     69 H102        41.2780    42.0050    60.4580 hc         1 Z8A       0.036200
     70 H111        41.7770    39.6750    59.6620 hc         1 Z8A       0.038200
     71 H112        42.0450    39.1680    61.3300 hc         1 Z8A       0.038200
     72 H121        39.6620    39.7030    61.8930 hc         1 Z8A       0.036700
     73 H122        39.4010    40.3030    60.2600 hc         1 Z8A       0.036700
     74 H131        38.4390    38.1110    60.3930 hc         1 Z8A       0.038200
     75 H132        39.8400    38.0150    59.3350 hc         1 Z8A       0.038200
     76 H141        41.1970    37.0130    61.1830 hc         1 Z8A       0.038200
     77 H142        39.8370    37.1530    62.2880 hc         1 Z8A       0.038200
     78 H151        39.8730    35.4290    59.7430 hc         1 Z8A       0.037200
     79 H152        40.2180    34.8420    61.3640 hc         1 Z8A       0.037200
     80 H161        37.8830    35.5100    62.0870 hc         1 Z8A       0.038200
     81 H162        37.5410    35.9960    60.4240 hc         1 Z8A       0.038200
     82 H171        37.9420    33.6570    59.6400 hc         1 Z8A       0.039700
     83 H172        38.3570    33.1640    61.2690 hc         1 Z8A       0.039700
     84 H181        36.0730    33.5450    62.0670 hc         1 Z8A       0.037700
     85 H182        36.0770    32.4640    60.6820 hc         1 Z8A       0.037700
     86 H2O         33.7600    34.9330    58.1320 ho         1 Z8A       0.442000
     87 H11N        31.9840    32.0620    60.8680 hn         1 Z8A       0.312500
     88 H201        32.6440    30.0210    60.9480 hc         1 Z8A       0.053700
     89 H202        31.4910    28.8160    60.3170 hc         1 Z8A       0.053700
     90 H211        33.6470    28.2670    59.4190 hc         1 Z8A       0.048700
     91 H212        32.6590    28.8710    58.0990 hc         1 Z8A       0.048700
     92 H221        33.8170    31.1260    58.3240 hc         1 Z8A       0.043200
     93 H222        34.8320    30.4440    59.6000 hc         1 Z8A       0.043200
     94 H231        35.5820    28.6640    57.8790 hc         1 Z8A       0.039700
     95 H232        34.7410    29.5920    56.6520 hc         1 Z8A       0.039700
     96 H241        37.1670    30.4490    58.3080 hc         1 Z8A       0.035700
     97 H242        37.1150    30.1030    56.5850 hc         1 Z8A       0.035700
     98 H251        35.5470    32.1450    56.3270 hc         1 Z8A       0.040700
     99 H252        35.8710    32.5010    58.0200 hc         1 Z8A       0.040700
    100 H261        38.3850    32.5240    57.4240 hc         1 Z8A       0.036200
    101 H262        37.9070    32.4300    55.7310 hc         1 Z8A       0.036200
    102 H271        36.5750    34.5790    56.0490 hc         1 Z8A       0.038200
    103 H272        37.1790    34.6650    57.7000 hc         1 Z8A       0.038200
    104 H281        39.5760    34.5920    56.6460 hc         1 Z8A       0.036700
    105 H282        38.7850    34.9300    55.1160 hc         1 Z8A       0.036700
    106 H291        38.8950    36.6610    57.6340 hc         1 Z8A       0.036700
    107 H292        39.5850    37.0340    56.0640 hc         1 Z8A       0.036700
    108 H301        36.6110    36.9610    56.7870 hc         1 Z8A       0.037700
    109 H302        37.5730    38.4040    56.5620 hc         1 Z8A       0.037700
    110 H311        37.8630    37.9810    54.1730 hc         1 Z8A       0.037700
    111 H312        37.1170    36.3950    54.2850 hc         1 Z8A       0.037700
    112 H321        35.6470    39.0360    54.8140 hc         1 Z8A       0.036700
    113 H322        35.6140    38.1330    53.3020 hc         1 Z8A       0.036700
    114 H331        34.6840    36.1380    54.5780 hc         1 Z8A       0.039200
    115 H332        34.5270    37.1630    56.0040 hc         1 Z8A       0.039200
    116 H341        33.0170    38.7130    54.6910 hc         1 Z8A       0.035200
    117 H342        33.1000    37.6000    53.3300 hc         1 Z8A       0.035200
    118 H351        31.9240    37.0000    56.1040 hc         1 Z8A       0.038700
    119 H352        31.0180    37.2740    54.6200 hc         1 Z8A       0.038700
    120 H361        32.1230    35.2020    53.6260 hc         1 Z8A       0.036700
    121 H362        32.8840    34.9130    55.1900 hc         1 Z8A       0.036700
    122 H371        30.6210    34.6910    56.2600 hc         1 Z8A       0.040700
    123 H372        29.8660    34.9930    54.6980 hc         1 Z8A       0.040700
    124 H381        29.8140    32.6220    54.9920 hc         1 Z8A       0.034200
    125 H382        31.0400    32.9420    53.7750 hc         1 Z8A       0.034200
    126 H391        32.8190    32.7080    55.6730 hc         1 Z8A       0.049200
    127 H392        31.5080    32.2870    56.7360 hc         1 Z8A       0.049200
    128 H401        32.5660    30.2480    56.0300 hc         1 Z8A       0.033200
    129 H402        30.9580    30.2980    55.3440 hc         1 Z8A       0.033200
    130 H411        32.5190    29.3770    53.7390 hc         1 Z8A       0.034700
    131 H412        31.8910    30.8730    53.0940 hc         1 Z8A       0.034700
    132 H421        34.5640    30.8660    54.5810 hc         1 Z8A       0.035200
    133 H422        34.4850    30.2280    52.9520 hc         1 Z8A       0.035200
    134 H431        33.6780    32.3770    52.0530 hc         1 Z8A       0.040200
    135 H432        33.6240    33.0880    53.6560 hc         1 Z8A       0.040200
    136 H441        35.6710    33.8080    52.4680 hc         1 Z8A       0.030367
    137 H442        36.1080    32.8340    53.8860 hc         1 Z8A       0.030367
    138 H443        36.1780    32.1170    52.2590 hc         1 Z8A       0.030367
@<TRIPOS>BOND
     1     1     2 1   
     2     1    21 1   
     3     1    51 1   
     4     1    52 1   
     5     2     3 1   
     6     2    22 1   
     7     2    53 1   
     8     3     4 1   
     9     3     7 1   
    10     3    54 1   
    11     4     5 1   
    12     4    20 1   
    13     4    55 1   
    14     5     6 1   
    15     5    56 1   
    16     5    57 1   
    17     6    19 1   
    18     6    58 1   
    19     6    59 1   
    20     7    60 1   
    21     8     9 1   
    22     8    61 1   
    23     8    62 1   
    24     8    63 1   
    25     9    10 1   
    26     9    64 1   
    27     9    65 1   
    28    10    11 1   
    29    10    66 1   
    30    10    67 1   
    31    11    12 1   
    32    11    68 1   
    33    11    69 1   
    34    12    13 1   
    35    12    70 1   
    36    12    71 1   
    37    13    14 1   
    38    13    72 1   
    39    13    73 1   
    40    14    15 1   
    41    14    74 1   
    42    14    75 1   
    43    15    16 1   
    44    15    76 1   
    45    15    77 1   
    46    16    17 1   
    47    16    78 1   
    48    16    79 1   
    49    17    18 1   
    50    17    80 1   
    51    17    81 1   
    52    18    19 1   
    53    18    82 1   
    54    18    83 1   
    55    19    84 1   
    56    19    85 1   
    57    20    86 1   
    58    21    50 1   
    59    22    23 1   
    60    22    87 1   
    61    23    24 2   
    62    23    25 1   
    63    25    26 1   
    64    25    88 1   
    65    25    89 1   
    66    26    27 1   
    67    26    90 1   
    68    26    91 1   
    69    27    28 1   
    70    27    92 1   
    71    27    93 1   
    72    28    29 1   
    73    28    94 1   
    74    28    95 1   
    75    29    30 1   
    76    29    96 1   
    77    29    97 1   
    78    30    31 1   
    79    30    98 1   
    80    30    99 1   
    81    31    32 1   
    82    31   100 1   
    83    31   101 1   
    84    32    33 1   
    85    32   102 1   
    86    32   103 1   
    87    33    34 1   
    88    33   104 1   
    89    33   105 1   
    90    34    35 1   
    91    34   106 1   
    92    34   107 1   
    93    35    36 1   
    94    35   108 1   
    95    35   109 1   
    96    36    37 1   
    97    36   110 1   
    98    36   111 1   
    99    37    38 1   
   100    37   112 1   
   101    37   113 1   
   102    38    39 1   
   103    38   114 1   
   104    38   115 1   
   105    39    40 1   
   106    39   116 1   
   107    39   117 1   
   108    40    41 1   
   109    40   118 1   
   110    40   119 1   
   111    41    42 1   
   112    41   120 1   
   113    41   121 1   
   114    42    43 1   
   115    42   122 1   
   116    42   123 1   
   117    43    44 1   
   118    43   124 1   
   119    43   125 1   
   120    44    45 1   
   121    44   126 1   
   122    44   127 1   
   123    45    46 1   
   124    45   128 1   
   125    45   129 1   
   126    46    47 1   
   127    46   130 1   
   128    46   131 1   
   129    47    48 1   
   130    47   132 1   
   131    47   133 1   
   132    48    49 1   
   133    48   134 1   
   134    48   135 1   
   135    49   136 1   
   136    49   137 1   
   137    49   138 1   
@<TRIPOS>SUBSTRUCTURE
     1 Z8A         1 TEMP              0 ****  ****    0 ROOT
