@<TRIPOS>MOLECULE
Z8A
  138   137     1     0     0
SMALL
abcg2


@<TRIPOS>ATOM
      1 C1          28.7930    33.0510    61.1610 c3         1 Z8A       0.142600
      2 C2          30.2140    33.3050    60.6720 c3         1 Z8A       0.124700
      3 C3          30.9640    34.3350    61.5320 c3         1 Z8A       0.174300
      4 C4          32.4130    34.6200    61.0970 c3         1 Z8A       0.150300
      5 C5          33.4410    33.6590    61.6910 c3         1 Z8A      -0.113400
      6 C6          34.8810    34.0660    61.4020 c3         1 Z8A      -0.081400
      7 O1          30.1820    35.5100    61.4650 oh         1 Z8A      -0.652000
      8 C7          44.9130    42.0320    58.8020 c3         1 Z8A      -0.088100
      9 C8          43.6360    41.8680    59.6150 c3         1 Z8A      -0.075400
     10 C9          43.0430    40.4680    59.5120 c3         1 Z8A      -0.075400
     11 C10         41.7610    40.2980    60.3170 c3         1 Z8A      -0.076400
     12 C11         41.1590    38.9030    60.2090 c3         1 Z8A      -0.075400
     13 C12         39.8600    38.7600    60.9930 c3         1 Z8A      -0.073400
     14 C13         39.1860    37.3970    60.8570 c3         1 Z8A      -0.076400
     15 C14         39.9330    36.2550    61.5380 c3         1 Z8A      -0.073400
     16 C15         39.3130    34.8810    61.2930 c3         1 Z8A      -0.075400
     17 C16         37.8860    34.7350    61.8080 c3         1 Z8A      -0.076400
     18 C17         37.3260    33.3350    61.5890 c3         1 Z8A      -0.076400
     19 C18         35.8920    33.1420    62.0720 c3         1 Z8A      -0.070400
     20 O2          32.4610    34.6780    59.6880 oh         1 Z8A      -0.641000
     21 O3          28.8450    32.5380    62.4720 oh         1 Z8A      -0.677000
     22 N1          30.9450    32.0620    60.5970 ns         1 Z8A      -0.500900
     23 C19         31.2150    31.4060    59.4540 c          1 Z8A       0.604100
     24 O4          30.8810    31.8140    58.3500 o          1 Z8A      -0.602100
     25 C20         31.9590    30.0980    59.6290 c3         1 Z8A      -0.156400
     26 C21         33.0900    29.9250    58.6230 c3         1 Z8A      -0.065400
     27 C22         34.2210    30.9350    58.7810 c3         1 Z8A      -0.079400
     28 C23         35.3410    30.6800    57.7790 c3         1 Z8A      -0.075400
     29 C24         36.5120    31.6510    57.8490 c3         1 Z8A      -0.070400
     30 C25         36.1420    33.1030    57.5720 c3         1 Z8A      -0.078400
     31 C26         37.3610    34.0040    57.4180 c3         1 Z8A      -0.079400
     32 C27         37.0000    35.4790    57.3100 c3         1 Z8A      -0.076400
     33 C28         38.1940    36.3690    56.9890 c3         1 Z8A      -0.073400
     34 C29         37.8920    37.8670    57.0490 c3         1 Z8A      -0.072400
     35 C30         36.6760    38.3060    56.2360 c3         1 Z8A      -0.075400
     36 C31         36.7720    38.0080    54.7420 c3         1 Z8A      -0.074400
     37 C32         35.4630    38.2400    53.9900 c3         1 Z8A      -0.074400
     38 C33         34.4000    37.1940    54.3060 c3         1 Z8A      -0.079400
     39 C34         33.0940    37.4040    53.5490 c3         1 Z8A      -0.072400
     40 C35         31.9970    36.4110    53.9250 c3         1 Z8A      -0.073400
     41 C36         32.3940    34.9610    53.6840 c3         1 Z8A      -0.078400
     42 C37         31.2590    33.9590    53.8690 c3         1 Z8A      -0.074400
     43 C38         31.6870    32.5200    53.5830 c3         1 Z8A      -0.070400
     44 C39         32.5510    31.8950    54.6750 c3         1 Z8A      -0.082400
     45 C40         33.1130    30.5260    54.3000 c3         1 Z8A      -0.071400
     46 C41         34.2010    30.5190    53.2240 c3         1 Z8A      -0.072400
     47 C42         35.4470    31.3500    53.5650 c3         1 Z8A      -0.073400
     48 C43         35.4540    32.7450    52.9470 c3         1 Z8A      -0.081400
     49 C44         36.6240    33.6000    53.4130 c3         1 Z8A      -0.092100
     50 H3O         27.9510    32.3200    62.7490 ho         1 Z8A       0.445000
     51 H11         28.2110    33.9770    61.1050 h1         1 Z8A       0.037700
     52 H12         28.3270    32.3390    60.4680 h1         1 Z8A       0.037700
     53 H21         30.1360    33.6950    59.6570 h1         1 Z8A       0.113700
     54 H31         31.0100    33.9670    62.5670 h1         1 Z8A       0.043700
     55 H41         32.6500    35.6110    61.5210 h1         1 Z8A       0.015700
     56 H51         33.2940    33.6310    62.7760 hc         1 Z8A       0.048700
     57 H52         33.2830    32.6420    61.3290 hc         1 Z8A       0.048700
     58 H61         35.0620    34.0520    60.3210 hc         1 Z8A       0.039700
     59 H62         35.0380    35.1000    61.7250 hc         1 Z8A       0.039700
     60 H1O         30.4940    36.1210    62.1380 ho         1 Z8A       0.442000
     61 H71         45.3160    43.0410    58.8860 hc         1 Z8A       0.031367
     62 H72         45.6860    41.3380    59.1370 hc         1 Z8A       0.031367
     63 H73         44.7330    41.8350    57.7430 hc         1 Z8A       0.031367
     64 H81         43.8380    42.0980    60.6660 hc         1 Z8A       0.036700
     65 H82         42.8930    42.5990    59.2830 hc         1 Z8A       0.036700
     66 H91         42.8450    40.2360    58.4600 hc         1 Z8A       0.036700
     67 H92         43.7850    39.7350    59.8480 hc         1 Z8A       0.036700
     68 H101        41.9590    40.5270    61.3700 hc         1 Z8A       0.036200
     69 H102        41.0230    41.0360    59.9820 hc         1 Z8A       0.036200
     70 H111        40.9690    38.6700    59.1550 hc         1 Z8A       0.038200
     71 H112        41.8950    38.1700    60.5530 hc         1 Z8A       0.038200
     72 H121        40.0450    38.9690    62.0530 hc         1 Z8A       0.036700
     73 H122        39.1630    39.5320    60.6520 hc         1 Z8A       0.036700
     74 H131        38.1750    37.4680    61.2670 hc         1 Z8A       0.038200
     75 H132        39.0620    37.1630    59.7930 hc         1 Z8A       0.038200
     76 H141        40.9700    36.2330    61.1920 hc         1 Z8A       0.038200
     77 H142        39.9780    36.4490    62.6160 hc         1 Z8A       0.038200
     78 H151        39.3270    34.6700    60.2170 hc         1 Z8A       0.037200
     79 H152        39.9430    34.1160    61.7580 hc         1 Z8A       0.037200
     80 H161        37.8550    34.9800    62.8760 hc         1 Z8A       0.038200
     81 H162        37.2460    35.4670    61.3100 hc         1 Z8A       0.038200
     82 H171        37.3750    33.0970    60.5210 hc         1 Z8A       0.039700
     83 H172        37.9730    32.6070    62.0890 hc         1 Z8A       0.039700
     84 H181        35.8420    33.2770    63.1580 hc         1 Z8A       0.037700
     85 H182        35.5970    32.1040    61.8840 hc         1 Z8A       0.037700
     86 H2O         33.3090    35.0430    59.4210 ho         1 Z8A       0.442000
     87 H11N        31.1810    31.6100    61.4670 hn         1 Z8A       0.312500
     88 H201        32.3470    30.0000    60.6460 hc         1 Z8A       0.053700
     89 H202        31.2310    29.2910    59.4970 hc         1 Z8A       0.053700
     90 H211        33.4930    28.9150    58.7310 hc         1 Z8A       0.048700
     91 H212        32.6880    29.9830    57.6070 hc         1 Z8A       0.048700
     92 H221        33.8290    31.9500    58.6580 hc         1 Z8A       0.043200
     93 H222        34.6200    30.8860    59.8000 hc         1 Z8A       0.043200
     94 H231        35.7140    29.6600    57.9200 hc         1 Z8A       0.039700
     95 H232        34.9220    30.7080    56.7670 hc         1 Z8A       0.039700
     96 H241        36.9910    31.5830    58.8320 hc         1 Z8A       0.035700
     97 H242        37.2690    31.3360    57.1230 hc         1 Z8A       0.035700
     98 H251        35.5310    33.1600    56.6630 hc         1 Z8A       0.040700
     99 H252        35.5120    33.4910    58.3780 hc         1 Z8A       0.040700
    100 H261        38.0360    33.8600    58.2690 hc         1 Z8A       0.036200
    101 H262        37.9230    33.6940    56.5300 hc         1 Z8A       0.036200
    102 H271        36.2330    35.6030    56.5370 hc         1 Z8A       0.038200
    103 H272        36.5360    35.8030    58.2490 hc         1 Z8A       0.038200
    104 H281        39.0070    36.1490    57.6900 hc         1 Z8A       0.036700
    105 H282        38.5810    36.1020    56.0000 hc         1 Z8A       0.036700
    106 H291        37.7290    38.1520    58.0940 hc         1 Z8A       0.036700
    107 H292        38.7760    38.4230    56.7210 hc         1 Z8A       0.036700
    108 H301        35.7840    37.8310    56.6530 hc         1 Z8A       0.037700
    109 H302        36.5260    39.3820    56.3700 hc         1 Z8A       0.037700
    110 H311        37.5640    38.6270    54.3080 hc         1 Z8A       0.037700
    111 H312        37.0840    36.9700    54.5840 hc         1 Z8A       0.037700
    112 H321        35.0770    39.2410    54.2170 hc         1 Z8A       0.036700
    113 H322        35.6570    38.2270    52.9130 hc         1 Z8A       0.036700
    114 H331        34.8110    36.2060    54.0700 hc         1 Z8A       0.039200
    115 H332        34.1870    37.1810    55.3800 hc         1 Z8A       0.039200
    116 H341        32.7350    38.4220    53.7310 hc         1 Z8A       0.035200
    117 H342        33.2860    37.3380    52.4720 hc         1 Z8A       0.035200
    118 H351        31.7260    36.5470    54.9780 hc         1 Z8A       0.038700
    119 H352        31.0950    36.6410    53.3480 hc         1 Z8A       0.038700
    120 H361        32.7820    34.8630    52.6630 hc         1 Z8A       0.036700
    121 H362        33.2230    34.6990    54.3470 hc         1 Z8A       0.036700
    122 H371        30.8600    34.0320    54.8870 hc         1 Z8A       0.040700
    123 H372        30.4370    34.2320    53.2000 hc         1 Z8A       0.040700
    124 H381        30.8000    31.8930    53.4490 hc         1 Z8A       0.034200
    125 H382        32.2150    32.5000    52.6240 hc         1 Z8A       0.034200
    126 H391        33.3720    32.5630    54.9540 hc         1 Z8A       0.049200
    127 H392        31.9450    31.7920    55.5810 hc         1 Z8A       0.049200
    128 H401        33.5210    30.0560    55.2000 hc         1 Z8A       0.033200
    129 H402        32.2900    29.8800    53.9760 hc         1 Z8A       0.033200
    130 H411        34.4920    29.4780    53.0620 hc         1 Z8A       0.034700
    131 H412        33.7890    30.8540    52.2660 hc         1 Z8A       0.034700
    132 H421        35.5450    31.4380    54.6530 hc         1 Z8A       0.035200
    133 H422        36.3460    30.8230    53.2320 hc         1 Z8A       0.035200
    134 H431        35.4750    32.6510    51.8570 hc         1 Z8A       0.040200
    135 H432        34.5210    33.2580    53.1830 hc         1 Z8A       0.040200
    136 H441        36.6060    34.5900    52.9560 hc         1 Z8A       0.030367
    137 H442        36.5970    33.7400    54.4960 hc         1 Z8A       0.030367
    138 H443        37.5820    33.1370    53.1660 hc         1 Z8A       0.030367
@<TRIPOS>BOND
     1     1     2 1   
     2     1    21 1   
     3     1    51 1   
     4     1    52 1   
     5     2     3 1   
     6     2    22 1   
     7     2    53 1   
     8     3     4 1   
     9     3     7 1   
    10     3    54 1   
    11     4     5 1   
    12     4    20 1   
    13     4    55 1   
    14     5     6 1   
    15     5    56 1   
    16     5    57 1   
    17     6    19 1   
    18     6    58 1   
    19     6    59 1   
    20     7    60 1   
    21     8     9 1   
    22     8    61 1   
    23     8    62 1   
    24     8    63 1   
    25     9    10 1   
    26     9    64 1   
    27     9    65 1   
    28    10    11 1   
    29    10    66 1   
    30    10    67 1   
    31    11    12 1   
    32    11    68 1   
    33    11    69 1   
    34    12    13 1   
    35    12    70 1   
    36    12    71 1   
    37    13    14 1   
    38    13    72 1   
    39    13    73 1   
    40    14    15 1   
    41    14    74 1   
    42    14    75 1   
    43    15    16 1   
    44    15    76 1   
    45    15    77 1   
    46    16    17 1   
    47    16    78 1   
    48    16    79 1   
    49    17    18 1   
    50    17    80 1   
    51    17    81 1   
    52    18    19 1   
    53    18    82 1   
    54    18    83 1   
    55    19    84 1   
    56    19    85 1   
    57    20    86 1   
    58    21    50 1   
    59    22    23 1   
    60    22    87 1   
    61    23    24 2   
    62    23    25 1   
    63    25    26 1   
    64    25    88 1   
    65    25    89 1   
    66    26    27 1   
    67    26    90 1   
    68    26    91 1   
    69    27    28 1   
    70    27    92 1   
    71    27    93 1   
    72    28    29 1   
    73    28    94 1   
    74    28    95 1   
    75    29    30 1   
    76    29    96 1   
    77    29    97 1   
    78    30    31 1   
    79    30    98 1   
    80    30    99 1   
    81    31    32 1   
    82    31   100 1   
    83    31   101 1   
    84    32    33 1   
    85    32   102 1   
    86    32   103 1   
    87    33    34 1   
    88    33   104 1   
    89    33   105 1   
    90    34    35 1   
    91    34   106 1   
    92    34   107 1   
    93    35    36 1   
    94    35   108 1   
    95    35   109 1   
    96    36    37 1   
    97    36   110 1   
    98    36   111 1   
    99    37    38 1   
   100    37   112 1   
   101    37   113 1   
   102    38    39 1   
   103    38   114 1   
   104    38   115 1   
   105    39    40 1   
   106    39   116 1   
   107    39   117 1   
   108    40    41 1   
   109    40   118 1   
   110    40   119 1   
   111    41    42 1   
   112    41   120 1   
   113    41   121 1   
   114    42    43 1   
   115    42   122 1   
   116    42   123 1   
   117    43    44 1   
   118    43   124 1   
   119    43   125 1   
   120    44    45 1   
   121    44   126 1   
   122    44   127 1   
   123    45    46 1   
   124    45   128 1   
   125    45   129 1   
   126    46    47 1   
   127    46   130 1   
   128    46   131 1   
   129    47    48 1   
   130    47   132 1   
   131    47   133 1   
   132    48    49 1   
   133    48   134 1   
   134    48   135 1   
   135    49   136 1   
   136    49   137 1   
   137    49   138 1   
@<TRIPOS>SUBSTRUCTURE
     1 Z8A         1 TEMP              0 ****  ****    0 ROOT
