@<TRIPOS>MOLECULE
Z8B
   33    35     1     0     0
SMALL
No Charge or Current Charge


@<TRIPOS>ATOM
      1 N1          -4.7990    -0.6830     1.0430 nb         1 Z8B      -0.302000
      2 C2          -3.9980    -1.7750     1.0620 ca         1 Z8B       0.192900
      3 N3          -2.6800    -1.8150     0.7560 nb         1 Z8B      -0.216000
      4 C4          -2.1200    -0.6420     0.3990 ca         1 Z8B       0.157500
      5 C5          -2.8450     0.5230     0.3480 ca         1 Z8B      -0.107600
      6 C6          -4.2140     0.4680     0.6810 ca         1 Z8B       0.458900
      7 N6          -5.0150     1.5650     0.6640 nv         1 Z8B      -1.059900
      8 N7          -2.0750     1.6130    -0.0370 nc         1 Z8B      -0.512100
      9 C8          -0.8700     1.0480    -0.2130 cd         1 Z8B       0.362800
     10 Br8          0.6190     2.0740    -0.7680 br         1 Z8B       0.009700
     11 N9          -0.8310    -0.3400     0.0400 na         1 Z8B      -0.271300
     12 C1           0.3010    -1.2610    -0.0680 c5         1 Z8B       0.315300
     13 C7           0.9220    -1.4800    -1.4830 c5         1 Z8B       0.136300
     14 O2           0.1380    -2.3000    -2.3600 oh         1 Z8B      -0.670000
     15 C3           2.2150    -2.2250    -1.0500 c5         1 Z8B       0.102300
     16 O3           1.9120    -3.5950    -0.7190 oh         1 Z8B      -0.687000
     17 C9           2.6380    -1.3760     0.2050 c5         1 Z8B       0.109300
     18 C10          3.6600    -0.2480    -0.1180 c3         1 Z8B       0.154800
     19 O5           1.4090    -0.7900     0.7270 os         1 Z8B      -0.457000
     20 N51          4.1450     0.4000     1.1140 n2         1 Z8B      -0.446200
     21 N52          3.4910     1.3710     1.5300 n1         1 Z8B       0.242000
     22 N53          2.9620     2.2430     2.0340 n1         1 Z8B      -0.046000
     23 H2          -4.4610    -2.7160     1.3530 h5         1 Z8B       0.050100
     24 H1N6        -4.5510     2.4690     0.6140 hn         1 Z8B       0.509500
     25 H2N6        -5.8880     1.5310     1.1840 hn         1 Z8B       0.509500
     26 H1          -0.0440    -2.2250     0.3300 h2         1 Z8B       0.128700
     27 H5           1.1600    -0.5220    -1.9640 h1         1 Z8B       0.051700
     28 HO2          0.4060    -3.2220    -2.1210 ho         1 Z8B       0.513000
     29 H3           2.9790    -2.1850    -1.8400 h1         1 Z8B       0.052700
     30 HO3          2.7650    -4.0520    -0.5210 ho         1 Z8B       0.508000
     31 H4           3.0790    -2.0230     0.9760 h1         1 Z8B       0.084700
     32 H15          4.5070    -0.6960    -0.6520 h1         1 Z8B       0.063200
     33 H25          3.1980     0.4770    -0.8010 h1         1 Z8B       0.063200
@<TRIPOS>BOND
     1     1     2 ar  
     2     1     6 ar  
     3     2     3 ar  
     4     2    23 1   
     5     3     4 ar  
     6     4     5 ar  
     7     4    11 1   
     8     5     6 ar  
     9     5     8 1   
    10     6     7 1   
    11     7    24 1   
    12     7    25 1   
    13     8     9 2   
    14     9    10 1   
    15     9    11 1   
    16    11    12 1   
    17    12    13 1   
    18    12    19 1   
    19    12    26 1   
    20    13    14 1   
    21    13    15 1   
    22    13    27 1   
    23    14    28 1   
    24    15    16 1   
    25    15    17 1   
    26    15    29 1   
    27    16    30 1   
    28    17    18 1   
    29    17    19 1   
    30    17    31 1   
    31    18    20 1   
    32    18    32 1   
    33    18    33 1   
    34    20    21 1   
    35    21    22 3   
@<TRIPOS>SUBSTRUCTURE
     1 Z8B         1 TEMP              0 ****  ****    0 ROOT
