@<TRIPOS>MOLECULE
Z8B
   33    35     1     0     0
SMALL
abcg2


@<TRIPOS>ATOM
      1 N1          -4.5740    -0.6640     1.1930 nb         1 Z8B      -0.302000
      2 C2          -3.7540    -1.7090     1.2480 ca         1 Z8B       0.192900
      3 N3          -2.4800    -1.7730     0.8970 nb         1 Z8B      -0.216000
      4 C4          -2.0360    -0.6070     0.4450 ca         1 Z8B       0.157500
      5 C5          -2.7640     0.5610     0.3330 ca         1 Z8B      -0.107600
      6 C6          -4.1120     0.5050     0.7340 ca         1 Z8B       0.458900
      7 N6          -4.9280     1.5540     0.6740 nv         1 Z8B      -1.059900
      8 N7          -1.9840     1.5740    -0.1620 nc         1 Z8B      -0.512100
      9 C8          -0.8280     1.0280    -0.3440 cd         1 Z8B       0.362800
     10 BR8          0.6140     1.9900    -0.9960 br         1 Z8B       0.009700
     11 N9          -0.7720    -0.3020    -0.0020 na         1 Z8B      -0.271300
     12 C1           0.3010    -1.2640    -0.0360 c5         1 Z8B       0.315300
     13 C7           0.8840    -1.5810    -1.4100 c5         1 Z8B       0.136300
     14 O2          -0.0110    -2.3680    -2.1250 oh         1 Z8B      -0.670000
     15 C3           2.2040    -2.2430    -0.9970 c5         1 Z8B       0.102300
     16 O3           1.9370    -3.5860    -0.6980 oh         1 Z8B      -0.687000
     17 C9           2.5830    -1.4250     0.2520 c5         1 Z8B       0.109300
     18 C10          3.6190    -0.3510    -0.0280 c3         1 Z8B       0.154800
     19 O5           1.3800    -0.8160     0.7320 os         1 Z8B      -0.457000
     20 N51          3.9530     0.4040     1.1780 n2         1 Z8B      -0.446200
     21 N52          3.1830     1.2820     1.5260 n1         1 Z8B       0.242000
     22 N53          2.5640     2.1240     1.9380 n1         1 Z8B      -0.046000
     23 H2          -4.1890    -2.6250     1.6320 h5         1 Z8B       0.050100
     24 H1N6        -4.6120     2.4440     0.3300 hn         1 Z8B       0.509500
     25 H2N6        -5.8830     1.4740     0.9780 hn         1 Z8B       0.509500
     26 H1          -0.1380    -2.1790     0.3780 h2         1 Z8B       0.128700
     27 H5           1.1260    -0.6540    -1.9420 h1         1 Z8B       0.051700
     28 HO2          0.2820    -2.4190    -3.0400 ho         1 Z8B       0.513000
     29 H3           2.9680    -2.1470    -1.7790 h1         1 Z8B       0.052700
     30 HO3          2.7560    -4.0030    -0.4110 ho         1 Z8B       0.508000
     31 H4           2.9790    -2.0870     1.0290 h1         1 Z8B       0.084700
     32 H15          4.5430    -0.8350    -0.3390 h1         1 Z8B       0.063200
     33 H25          3.3060     0.3090    -0.8420 h1         1 Z8B       0.063200
@<TRIPOS>BOND
     1     1     2 ar  
     2     1     6 ar  
     3     2     3 ar  
     4     2    23 1   
     5     3     4 ar  
     6     4     5 ar  
     7     4    11 1   
     8     5     6 ar  
     9     5     8 1   
    10     6     7 1   
    11     7    24 1   
    12     7    25 1   
    13     8     9 2   
    14     9    10 1   
    15     9    11 1   
    16    11    12 1   
    17    12    13 1   
    18    12    19 1   
    19    12    26 1   
    20    13    14 1   
    21    13    15 1   
    22    13    27 1   
    23    14    28 1   
    24    15    16 1   
    25    15    17 1   
    26    15    29 1   
    27    16    30 1   
    28    17    18 1   
    29    17    19 1   
    30    17    31 1   
    31    18    20 1   
    32    18    32 1   
    33    18    33 1   
    34    20    21 1   
    35    21    22 3   
@<TRIPOS>SUBSTRUCTURE
     1 Z8B         1 TEMP              0 ****  ****    0 ROOT
