@<TRIPOS>MOLECULE
Z8G
   65    68     1     0     0
SMALL
abcg2


@<TRIPOS>ATOM
      1 C1         -25.6550   -10.4730   -24.1730 ca         1 Z8G      -0.141300
      2 C2         -25.6770    -9.8910   -25.4380 ca         1 Z8G      -0.077000
      3 C3         -25.9820    -8.5500   -25.5710 ca         1 Z8G      -0.094000
      4 C4         -26.2780    -7.7540   -24.4660 ca         1 Z8G      -0.055300
      5 C5         -26.2410    -8.3380   -23.1980 ca         1 Z8G      -0.064300
      6 C6         -25.9260    -9.6850   -23.0660 ca         1 Z8G      -0.065000
      7 C7         -26.7210    -6.3200   -24.6500 c5         1 Z8G      -0.167700
      8 C8         -26.6560    -5.4330   -23.3610 c5         1 Z8G      -0.049700
      9 C9         -25.9480    -6.1170   -22.1990 c6         1 Z8G      -0.068400
     10 C10        -26.4980    -7.5120   -21.9770 c6         1 Z8G      -0.037100
     11 C11        -25.9160    -5.5420   -25.7230 c5         1 Z8G      -0.057400
     12 C12        -24.9900    -4.6570   -24.9030 c5         1 Z8G      -0.090400
     13 C13        -25.8930    -4.1640   -23.7760 c5         1 Z8G       0.118700
     14 S14        -28.4640    -6.3940   -25.2620 sy         1 Z8G       1.013500
     15 C15        -25.3280   -11.9350   -23.9680 c3         1 Z8G       0.122300
     16 F16        -25.3140   -12.2320   -22.6270 f          1 Z8G      -0.209000
     17 O17        -29.0160    -5.0360   -25.2350 o          1 Z8G      -0.514500
     18 O18        -28.4690    -7.1070   -26.5370 o          1 Z8G      -0.514500
     19 C19        -29.3430    -7.3590   -24.0680 ca         1 Z8G      -0.280500
     20 C20        -29.2950    -8.7480   -24.1420 ca         1 Z8G       0.013500
     21 C21        -29.9400    -9.5030   -23.1800 ca         1 Z8G      -0.176000
     22 C22        -30.6300    -8.8490   -22.1750 ca         1 Z8G       0.229000
     23 C23        -30.7040    -7.4700   -22.0980 ca         1 Z8G      -0.176000
     24 C24        -30.0500    -6.7180   -23.0580 ca         1 Z8G       0.013500
     25 N25        -26.8070    -3.1320   -24.2170 ns         1 Z8G      -0.508900
     26 C26        -26.4310    -1.8550   -24.3570 c          1 Z8G       0.567100
     27 C27        -27.4950    -0.9160   -24.9500 c3         1 Z8G       0.107000
     28 O28        -25.3130    -1.4470   -24.0720 o          1 Z8G      -0.614100
     29 O29        -28.7840    -1.4970   -24.8990 oh         1 Z8G      -0.648000
     30 C30        -27.1610    -0.7340   -26.4280 c3         1 Z8G      -0.097600
     31 C31        -27.4720     0.4210   -24.2180 c3         1 Z8G      -0.097600
     32 F32        -31.2530    -9.5760   -21.2460 f          1 Z8G      -0.164000
     33 C33        -23.9010   -12.2680   -24.4600 c3         1 Z8G       0.302500
     34 C34        -26.4310   -12.8430   -24.5580 c3         1 Z8G       0.302500
     35 F35        -23.0450   -11.3790   -23.9660 f          1 Z8G      -0.091833
     36 F36        -23.8190   -12.2290   -25.7880 f          1 Z8G      -0.091833
     37 F37        -23.5090   -13.4720   -24.0600 f          1 Z8G      -0.091833
     38 F38        -27.5990   -12.5190   -24.0100 f          1 Z8G      -0.091833
     39 F39        -26.2030   -14.1280   -24.3020 f          1 Z8G      -0.091833
     40 F40        -26.5420   -12.7020   -25.8740 f          1 Z8G      -0.091833
     41 H41        -25.4660   -10.4510   -26.3360 ha         1 Z8G       0.140000
     42 H42        -25.9990    -8.1370   -26.5690 ha         1 Z8G       0.142000
     43 H43        -25.8980   -10.0990   -22.0680 ha         1 Z8G       0.135000
     44 H44        -27.6560    -5.1710   -23.0050 hc         1 Z8G       0.059700
     45 H46        -24.8720    -6.1800   -22.3850 hc         1 Z8G       0.057200
     46 H45        -26.0810    -5.5020   -21.3080 hc         1 Z8G       0.057200
     47 H47        -27.5720    -7.4650   -21.7660 hc         1 Z8G       0.059700
     48 H48        -26.0340    -7.9790   -21.1080 hc         1 Z8G       0.059700
     49 H49        -26.5640    -4.9120   -26.3350 hc         1 Z8G       0.064700
     50 H50        -25.3840    -6.1990   -26.4060 hc         1 Z8G       0.064700
     51 H52        -24.1660    -5.2420   -24.4880 hc         1 Z8G       0.066200
     52 H51        -24.5570    -3.8460   -25.4870 hc         1 Z8G       0.066200
     53 H53        -25.3190    -3.7760   -22.9330 h1         1 Z8G       0.082700
     54 H54        -28.7600    -9.2490   -24.9370 ha         1 Z8G       0.141500
     55 H55        -29.9090   -10.5840   -23.2130 ha         1 Z8G       0.143000
     56 H56        -31.2620    -6.9910   -21.3040 ha         1 Z8G       0.143000
     57 H57        -30.1000    -5.6390   -23.0110 ha         1 Z8G       0.141500
     58 H58        -27.7300    -3.3960   -24.5290 hn         1 Z8G       0.354500
     59 H59        -29.1080    -1.4570   -23.9910 ho         1 Z8G       0.445000
     60 H62        -26.1620    -0.3190   -26.5490 hc         1 Z8G       0.050867
     61 H61        -27.2020    -1.6840   -26.9650 hc         1 Z8G       0.050867
     62 H60        -27.8720    -0.0480   -26.8920 hc         1 Z8G       0.050867
     63 H63        -27.7150     0.2990   -23.1600 hc         1 Z8G       0.050867
     64 H64        -26.4950     0.8960   -24.2820 hc         1 Z8G       0.050867
     65 H65        -28.2060     1.0950   -24.6590 hc         1 Z8G       0.050867
@<TRIPOS>BOND
     1     1     2 ar  
     2     1     6 ar  
     3     1    15 1   
     4     2     3 ar  
     5     2    41 1   
     6     3     4 ar  
     7     3    42 1   
     8     4     5 ar  
     9     4     7 1   
    10     5     6 ar  
    11     5    10 1   
    12     6    43 1   
    13     7     8 1   
    14     7    11 1   
    15     7    14 1   
    16     8     9 1   
    17     8    13 1   
    18     8    44 1   
    19     9    10 1   
    20     9    45 1   
    21     9    46 1   
    22    10    47 1   
    23    10    48 1   
    24    11    12 1   
    25    11    49 1   
    26    11    50 1   
    27    12    13 1   
    28    12    51 1   
    29    12    52 1   
    30    13    25 1   
    31    13    53 1   
    32    14    17 2   
    33    14    18 2   
    34    14    19 1   
    35    15    16 1   
    36    15    33 1   
    37    15    34 1   
    38    19    20 ar  
    39    19    24 ar  
    40    20    21 ar  
    41    20    54 1   
    42    21    22 ar  
    43    21    55 1   
    44    22    23 ar  
    45    22    32 1   
    46    23    24 ar  
    47    23    56 1   
    48    24    57 1   
    49    25    26 1   
    50    25    58 1   
    51    26    27 1   
    52    26    28 2   
    53    27    29 1   
    54    27    30 1   
    55    27    31 1   
    56    29    59 1   
    57    30    60 1   
    58    30    61 1   
    59    30    62 1   
    60    31    63 1   
    61    31    64 1   
    62    31    65 1   
    63    33    35 1   
    64    33    36 1   
    65    33    37 1   
    66    34    38 1   
    67    34    39 1   
    68    34    40 1   
@<TRIPOS>SUBSTRUCTURE
     1 Z8G         1 TEMP              0 ****  ****    0 ROOT
