@<TRIPOS>MOLECULE
Z8G
   65    68     1     0     0
SMALL
No Charge or Current Charge


@<TRIPOS>ATOM
      1 C1         -25.5680   -10.5040   -24.1460 ca         1 Z8G      -0.141300
      2 C2         -25.6660    -9.8980   -25.4160 ca         1 Z8G      -0.077000
      3 C3         -25.9880    -8.5380   -25.5450 ca         1 Z8G      -0.094000
      4 C4         -26.2140    -7.7180   -24.4170 ca         1 Z8G      -0.055300
      5 C5         -26.1330    -8.3310   -23.1430 ca         1 Z8G      -0.064300
      6 C6         -25.8160    -9.6970   -23.0150 ca         1 Z8G      -0.065000
      7 C7         -26.6910    -6.2440   -24.6010 c5         1 Z8G      -0.167700
      8 C8         -26.5660    -5.3960   -23.2470 c5         1 Z8G      -0.049700
      9 C9         -25.8530    -6.1060   -22.0690 c6         1 Z8G      -0.068400
     10 C10        -26.3990    -7.5220   -21.8830 c6         1 Z8G      -0.037100
     11 C11        -25.7670    -5.4940   -25.6460 c5         1 Z8G      -0.057400
     12 C12        -24.8410    -4.6130   -24.7650 c5         1 Z8G      -0.090400
     13 C13        -25.7930    -4.0990   -23.6510 c5         1 Z8G       0.118700
     14 S14        -28.4840    -6.2400   -25.1980 sy         1 Z8G       1.013500
     15 C15        -25.2520   -12.0180   -23.9860 c3         1 Z8G       0.122300
     16 F16        -24.9540   -12.2810   -22.6830 f          1 Z8G      -0.209000
     17 O17        -28.9890    -4.8660   -25.0780 o          1 Z8G      -0.514500
     18 O18        -28.5160    -6.9240   -26.4980 o          1 Z8G      -0.514500
     19 C19        -29.4000    -7.2650   -24.0300 ca         1 Z8G      -0.280500
     20 C20        -29.3720    -8.6700   -24.1630 ca         1 Z8G       0.013500
     21 C21        -30.0440    -9.4750   -23.2290 ca         1 Z8G      -0.176000
     22 C22        -30.7430    -8.8820   -22.1690 ca         1 Z8G       0.229000
     23 C23        -30.7770    -7.4870   -22.0330 ca         1 Z8G      -0.176000
     24 C24        -30.1050    -6.6730   -22.9610 ca         1 Z8G       0.013500
     25 N25        -26.7610    -3.1910   -24.2900 ns         1 Z8G      -0.508900
     26 C26        -26.4300    -1.8530   -24.4240 c          1 Z8G       0.567100
     27 C27        -27.5010    -0.9620   -25.1640 c3         1 Z8G       0.107000
     28 O28        -25.3860    -1.3910   -23.9760 o          1 Z8G      -0.614100
     29 O29        -28.7170    -1.6890   -25.4560 oh         1 Z8G      -0.648000
     30 C30        -26.9260    -0.4860   -26.5180 c3         1 Z8G      -0.097600
     31 C31        -27.8960     0.2450   -24.2790 c3         1 Z8G      -0.097600
     32 F32        -31.3860    -9.6600   -21.2710 f          1 Z8G      -0.164000
     33 C33        -23.9830   -12.4550   -24.8110 c3         1 Z8G       0.302500
     34 C34        -26.5270   -12.8670   -24.3290 c3         1 Z8G       0.302500
     35 F35        -22.9660   -11.5780   -24.6410 f          1 Z8G      -0.091833
     36 F36        -24.2280   -12.5380   -26.1390 f          1 Z8G      -0.091833
     37 F37        -23.5390   -13.6770   -24.4280 f          1 Z8G      -0.091833
     38 F38        -27.5660   -12.5200   -23.5330 f          1 Z8G      -0.091833
     39 F39        -26.3090   -14.1940   -24.1750 f          1 Z8G      -0.091833
     40 F40        -26.9330   -12.6740   -25.6060 f          1 Z8G      -0.091833
     41 H41        -25.5230   -10.4750   -26.3250 ha         1 Z8G       0.140000
     42 H42        -26.0940    -8.1360   -26.5490 ha         1 Z8G       0.142000
     43 H43        -25.7780   -10.1270   -22.0170 ha         1 Z8G       0.135000
     44 H44        -27.5490    -5.1440   -22.8300 hc         1 Z8G       0.059700
     45 H46        -24.7710    -6.1610   -22.2500 hc         1 Z8G       0.057200
     46 H45        -25.9860    -5.5260   -21.1450 hc         1 Z8G       0.057200
     47 H47        -27.4760    -7.4960   -21.6710 hc         1 Z8G       0.059700
     48 H48        -25.9160    -7.9870   -21.0130 hc         1 Z8G       0.059700
     49 H49        -26.3500    -4.8680   -26.3320 hc         1 Z8G       0.064700
     50 H50        -25.1730    -6.1530   -26.2870 hc         1 Z8G       0.064700
     51 H52        -24.0240    -5.2070   -24.3410 hc         1 Z8G       0.066200
     52 H51        -24.3750    -3.7990   -25.3340 hc         1 Z8G       0.066200
     53 H53        -25.2640    -3.6380   -22.8050 h1         1 Z8G       0.082700
     54 H54        -28.8230    -9.1400   -24.9780 ha         1 Z8G       0.141500
     55 H55        -30.0200   -10.5570   -23.3240 ha         1 Z8G       0.143000
     56 H56        -31.3210    -7.0380   -21.2060 ha         1 Z8G       0.143000
     57 H57        -30.1310    -5.5910   -22.8400 ha         1 Z8G       0.141500
     58 H58        -27.6430    -3.4870   -24.7010 hn         1 Z8G       0.354500
     59 H59        -29.2670    -1.6910   -24.6430 ho         1 Z8G       0.445000
     60 H62        -26.0210     0.1150   -26.3680 hc         1 Z8G       0.050867
     61 H61        -26.6630    -1.3430   -27.1490 hc         1 Z8G       0.050867
     62 H60        -27.6560     0.1270   -27.0620 hc         1 Z8G       0.050867
     63 H63        -28.2900    -0.0910   -23.3120 hc         1 Z8G       0.050867
     64 H64        -27.0260     0.8840   -24.0830 hc         1 Z8G       0.050867
     65 H65        -28.6610     0.8590   -24.7680 hc         1 Z8G       0.050867
@<TRIPOS>BOND
     1     1     2 ar  
     2     1     6 ar  
     3     1    15 1   
     4     2     3 ar  
     5     2    41 1   
     6     3     4 ar  
     7     3    42 1   
     8     4     5 ar  
     9     4     7 1   
    10     5     6 ar  
    11     5    10 1   
    12     6    43 1   
    13     7     8 1   
    14     7    11 1   
    15     7    14 1   
    16     8     9 1   
    17     8    13 1   
    18     8    44 1   
    19     9    10 1   
    20     9    45 1   
    21     9    46 1   
    22    10    47 1   
    23    10    48 1   
    24    11    12 1   
    25    11    49 1   
    26    11    50 1   
    27    12    13 1   
    28    12    51 1   
    29    12    52 1   
    30    13    25 1   
    31    13    53 1   
    32    14    17 2   
    33    14    18 2   
    34    14    19 1   
    35    15    16 1   
    36    15    33 1   
    37    15    34 1   
    38    19    20 ar  
    39    19    24 ar  
    40    20    21 ar  
    41    20    54 1   
    42    21    22 ar  
    43    21    55 1   
    44    22    23 ar  
    45    22    32 1   
    46    23    24 ar  
    47    23    56 1   
    48    24    57 1   
    49    25    26 1   
    50    25    58 1   
    51    26    27 1   
    52    26    28 2   
    53    27    29 1   
    54    27    30 1   
    55    27    31 1   
    56    29    59 1   
    57    30    60 1   
    58    30    61 1   
    59    30    62 1   
    60    31    63 1   
    61    31    64 1   
    62    31    65 1   
    63    33    35 1   
    64    33    36 1   
    65    33    37 1   
    66    34    38 1   
    67    34    39 1   
    68    34    40 1   
@<TRIPOS>SUBSTRUCTURE
     1 Z8G         1 TEMP              0 ****  ****    0 ROOT
