@<TRIPOS>MOLECULE
Z8H
   24    24     1     0     0
SMALL
No Charge or Current Charge


@<TRIPOS>ATOM
      1 O1          40.4610   -22.3100     8.0860 oh         1 Z8H      -0.691000
      2 C1          39.0760   -22.4020     7.8290 c6         1 Z8H       0.376300
      3 C2          38.5380   -21.1940     6.9730 c6         1 Z8H       0.131300
      4 O2          38.7020   -21.3980     5.5550 oh         1 Z8H      -0.694000
      5 C3          37.0300   -20.9140     7.2800 c6         1 Z8H       0.132300
      6 O3          36.3620   -20.4210     6.0950 oh         1 Z8H      -0.726000
      7 C4          36.3240   -22.1960     7.8070 c6         1 Z8H       0.134300
      8 O4          34.9150   -21.9720     8.0080 oh         1 Z8H      -0.709000
      9 C5          37.0480   -22.7310     9.1060 c6         1 Z8H       0.154300
     10 O5          38.4620   -22.3740     9.1150 os         1 Z8H      -0.500000
     11 C6          36.4630   -22.1770    10.4480 c3         1 Z8H       0.140600
     12 O6          35.0570   -22.4560    10.6090 oh         1 Z8H      -0.724000
     13 HO1         40.5040   -22.4290     9.0600 ho         1 Z8H       0.517000
     14 H1          38.8480   -23.3590     7.3330 h2         1 Z8H       0.035700
     15 H2          39.0980   -20.2980     7.2800 h1         1 Z8H       0.085700
     16 HO2         37.8530   -21.0170     5.2060 ho         1 Z8H       0.516000
     17 H3          36.9830   -20.1580     8.0790 h1         1 Z8H       0.065700
     18 HO3         35.3990   -20.5590     6.2790 ho         1 Z8H       0.522000
     19 H4          36.4460   -22.9710     7.0340 h1         1 Z8H       0.055700
     20 HO4         34.7690   -22.1440     8.9850 ho         1 Z8H       0.519000
     21 H5          36.9650   -23.8280     9.1240 h1         1 Z8H       0.081700
     22 H61         37.0300   -22.6270    11.2740 h1         1 Z8H       0.032200
     23 H62         36.6360   -21.0930    10.4820 h1         1 Z8H       0.032200
     24 HO6         34.8400   -22.3090    11.5630 ho         1 Z8H       0.511000
@<TRIPOS>BOND
     1     1     2 1   
     2     1    13 1   
     3     2     3 1   
     4     2    10 1   
     5     2    14 1   
     6     3     4 1   
     7     3     5 1   
     8     3    15 1   
     9     4    16 1   
    10     5     6 1   
    11     5     7 1   
    12     5    17 1   
    13     6    18 1   
    14     7     8 1   
    15     7     9 1   
    16     7    19 1   
    17     8    20 1   
    18     9    10 1   
    19     9    11 1   
    20     9    21 1   
    21    11    12 1   
    22    11    22 1   
    23    11    23 1   
    24    12    24 1   
@<TRIPOS>SUBSTRUCTURE
     1 Z8H         1 TEMP              0 ****  ****    0 ROOT
