@<TRIPOS>MOLECULE
Z8H
   24    24     1     0     0
SMALL
bcc


@<TRIPOS>ATOM
      1 O1          40.2340   -22.2050     8.1370 oh         1 Z8H      -0.568800
      2 C1          38.9060   -22.4260     7.8280 c6         1 Z8H       0.329900
      3 C2          38.2540   -21.0820     7.5120 c6         1 Z8H       0.108100
      4 O2          38.8960   -20.4410     6.4500 oh         1 Z8H      -0.571800
      5 C3          36.7420   -21.2480     7.2280 c6         1 Z8H       0.109100
      6 O3          36.5390   -21.3690     5.8310 oh         1 Z8H      -0.603800
      7 C4          36.1780   -22.4830     7.9220 c6         1 Z8H       0.111100
      8 O4          34.8050   -22.2720     8.1170 oh         1 Z8H      -0.586800
      9 C5          36.9260   -22.7930     9.2200 c6         1 Z8H       0.131100
     10 O5          38.2950   -23.0430     8.9450 os         1 Z8H      -0.453600
     11 C6          36.7670   -21.7470    10.3290 c3         1 Z8H       0.117400
     12 O6          35.5610   -22.0050    11.0090 oh         1 Z8H      -0.601800
     13 HO1         40.7390   -23.0080     7.9750 ho         1 Z8H       0.418000
     14 H1          38.8210   -23.0940     6.9560 h2         1 Z8H       0.035700
     15 H2          38.3730   -20.4500     8.4000 h1         1 Z8H       0.085700
     16 HO2         38.4070   -20.6870     5.6520 ho         1 Z8H       0.417000
     17 H3          36.2240   -20.3600     7.6060 h1         1 Z8H       0.065700
     18 HO3         36.0000   -20.6350     5.5260 ho         1 Z8H       0.423000
     19 H4          36.3500   -23.3390     7.2500 h1         1 Z8H       0.055700
     20 HO4         34.4230   -23.0540     8.5280 ho         1 Z8H       0.420000
     21 H5          36.5320   -23.7330     9.6250 h1         1 Z8H       0.081700
     22 H61         37.6340   -21.8370    10.9950 h1         1 Z8H       0.032200
     23 H62         36.7860   -20.7260     9.9250 h1         1 Z8H       0.032200
     24 HO6         35.4190   -21.2980    11.6440 ho         1 Z8H       0.412000
@<TRIPOS>BOND
     1     1     2 1   
     2     1    13 1   
     3     2     3 1   
     4     2    10 1   
     5     2    14 1   
     6     3     4 1   
     7     3     5 1   
     8     3    15 1   
     9     4    16 1   
    10     5     6 1   
    11     5     7 1   
    12     5    17 1   
    13     6    18 1   
    14     7     8 1   
    15     7     9 1   
    16     7    19 1   
    17     8    20 1   
    18     9    10 1   
    19     9    11 1   
    20     9    21 1   
    21    11    12 1   
    22    11    22 1   
    23    11    23 1   
    24    12    24 1   
@<TRIPOS>SUBSTRUCTURE
     1 Z8H         1 TEMP              0 ****  ****    0 ROOT
