@<TRIPOS>MOLECULE
Z8I
   76    80     1     0     0
SMALL
No Charge or Current Charge


@<TRIPOS>ATOM
      1 C1         -23.2880    -5.3190   -25.9500 c5         1 Z8I      -0.066400
      2 C2         -23.6160    -3.8090   -26.0140 c5         1 Z8I       0.109000
      3 N3         -24.2880    -3.5630   -24.7110 n          1 Z8I      -0.400800
      4 C4         -24.7430    -4.8100   -24.0460 c5         1 Z8I       0.131700
      5 C5         -24.4950    -5.8980   -25.1480 c5         1 Z8I      -0.183700
      6 C6         -23.9450    -5.0280   -22.7480 c6         1 Z8I      -0.087400
      7 C7         -24.3180    -6.3930   -22.1530 c6         1 Z8I      -0.036100
      8 C8         -24.0330    -7.5090   -23.1510 ca         1 Z8I      -0.060300
      9 C9         -24.0620    -7.2610   -24.5450 ca         1 Z8I      -0.053300
     10 C10        -23.7140    -8.7890   -22.6570 ca         1 Z8I      -0.063000
     11 C11        -23.3910    -9.8550   -23.5260 ca         1 Z8I      -0.138300
     12 C12        -23.3730    -9.5880   -24.9120 ca         1 Z8I      -0.075000
     13 C13        -23.6960    -8.3160   -25.4060 ca         1 Z8I      -0.103000
     14 C14        -23.0630   -11.2700   -22.9690 c3         1 Z8I       0.121300
     15 S15        -26.0840    -6.0500   -26.1900 sy         1 Z8I       1.025500
     16 C16        -27.2530    -6.9290   -25.1310 ca         1 Z8I      -0.284500
     17 C17        -28.2010    -6.2130   -24.3690 ca         1 Z8I       0.013000
     18 C18        -29.0780    -6.9050   -23.5170 ca         1 Z8I      -0.175000
     19 C19        -28.0680    -9.0180   -24.1770 ca         1 Z8I      -0.175000
     20 C20        -27.1890    -8.3350   -25.0340 ca         1 Z8I       0.013000
     21 C21        -29.0080    -8.3020   -23.4230 ca         1 Z8I       0.231000
     22 O22        -25.7780    -6.9340   -27.3230 o          1 Z8I      -0.507500
     23 O23        -26.6460    -4.7100   -26.4400 o          1 Z8I      -0.507500
     24 C24        -24.1330   -12.3190   -23.4460 c3         1 Z8I       0.302000
     25 C25        -21.5870   -11.6900   -23.3120 c3         1 Z8I       0.302000
     26 F26        -23.1390   -11.2520   -21.6090 f          1 Z8I      -0.208000
     27 F27        -21.2350   -12.8380   -22.6860 f          1 Z8I      -0.091500
     28 F28        -20.7120   -10.7280   -22.9350 f          1 Z8I      -0.091500
     29 F29        -21.4030   -11.8960   -24.6370 f          1 Z8I      -0.091500
     30 F30        -25.3870   -11.8910   -23.1680 f          1 Z8I      -0.091500
     31 F31        -23.9620   -13.5200   -22.8440 f          1 Z8I      -0.091500
     32 F32        -24.0780   -12.5400   -24.7800 f          1 Z8I      -0.091500
     33 F33        -29.8510    -8.9620   -22.5990 f          1 Z8I      -0.164000
     34 C34        -24.8330    -2.3080   -24.3410 c          1 Z8I       0.593100
     35 C35        -24.1310    -1.1000   -25.0590 c5         1 Z8I       0.030700
     36 O36        -25.7050    -2.2090   -23.4860 o          1 Z8I      -0.592100
     37 C37        -22.6740    -0.9130   -24.5090 c5         1 Z8I      -0.119400
     38 C38        -22.9010     0.0010   -23.2720 c5         1 Z8I       0.106300
     39 C39        -24.1030     0.8870   -23.6570 c          1 Z8I       0.545000
     40 N40        -24.7220     0.2240   -24.7250 n          1 Z8I      -0.393800
     41 O41        -24.4610     1.9590   -23.1830 o          1 Z8I      -0.509000
     42 F42        -21.7740     0.7920   -23.0130 f          1 Z8I      -0.236000
     43 C43        -25.9710     0.7520   -25.3340 c3         1 Z8I       0.080000
     44 C44        -25.7840     1.5980   -26.6320 c3         1 Z8I       0.170000
     45 O45        -25.0650     0.8320   -27.6020 oh         1 Z8I      -0.666000
     46 C46        -24.9750     2.8890   -26.3650 c3         1 Z8I      -0.104600
     47 C47        -27.1590     1.9450   -27.2440 c3         1 Z8I      -0.104600
     48 H49        -23.1670    -5.7620   -26.9450 hc         1 Z8I       0.072200
     49 H48        -22.3450    -5.4770   -25.4130 hc         1 Z8I       0.072200
     50 H50        -22.7010    -3.2150   -26.1380 h1         1 Z8I       0.054200
     51 H51        -24.2870    -3.5770   -26.8520 h1         1 Z8I       0.054200
     52 H52        -25.8060    -4.7560   -23.7730 h1         1 Z8I       0.083700
     53 H53        -22.8660    -4.9880   -22.9490 hc         1 Z8I       0.063200
     54 H54        -24.1660    -4.2290   -22.0280 hc         1 Z8I       0.063200
     55 H56        -25.3820    -6.4080   -21.8760 hc         1 Z8I       0.063700
     56 H55        -23.7500    -6.5520   -21.2260 hc         1 Z8I       0.063700
     57 H57        -23.7200    -8.9390   -21.5800 ha         1 Z8I       0.137000
     58 H58        -23.1180   -10.3640   -25.6290 ha         1 Z8I       0.139000
     59 H59        -23.6750    -8.1610   -26.4820 ha         1 Z8I       0.143000
     60 H60        -28.2600    -5.1260   -24.4280 ha         1 Z8I       0.144500
     61 H61        -29.8090    -6.3600   -22.9270 ha         1 Z8I       0.144000
     62 H62        -28.0200   -10.1010   -24.0950 ha         1 Z8I       0.144000
     63 H63        -26.4590    -8.9020   -25.6110 ha         1 Z8I       0.144500
     64 H64        -24.1440    -1.2810   -26.1410 h1         1 Z8I       0.094700
     65 H66        -22.1680    -1.8500   -24.2510 hc         1 Z8I       0.073700
     66 H65        -22.0500    -0.4050   -25.2530 hc         1 Z8I       0.073700
     67 H67        -23.1650    -0.5680   -22.3710 h1         1 Z8I       0.090700
     68 H69        -26.5100     1.3560   -24.5910 h1         1 Z8I       0.072700
     69 H68        -26.6200    -0.1020   -25.5670 h1         1 Z8I       0.072700
     70 H70        -24.1510     0.7390   -27.2610 ho         1 Z8I       0.439000
     71 H71        -25.4750     3.5100   -25.6120 hc         1 Z8I       0.046700
     72 H73        -23.9670     2.6600   -26.0000 hc         1 Z8I       0.046700
     73 H72        -24.8730     3.4840   -27.2810 hc         1 Z8I       0.046700
     74 H75        -27.7540     2.5470   -26.5470 hc         1 Z8I       0.046700
     75 H74        -27.0420     2.5160   -28.1730 hc         1 Z8I       0.046700
     76 H76        -27.7250     1.0340   -27.4750 hc         1 Z8I       0.046700
@<TRIPOS>BOND
     1     1     2 1   
     2     1     5 1   
     3     1    48 1   
     4     1    49 1   
     5     2     3 1   
     6     2    50 1   
     7     2    51 1   
     8     3     4 1   
     9     3    34 1   
    10     4     5 1   
    11     4     6 1   
    12     4    52 1   
    13     5     9 1   
    14     5    15 1   
    15     6     7 1   
    16     6    53 1   
    17     6    54 1   
    18     7     8 1   
    19     7    55 1   
    20     7    56 1   
    21     8     9 ar  
    22     8    10 ar  
    23     9    13 ar  
    24    10    11 ar  
    25    10    57 1   
    26    11    12 ar  
    27    11    14 1   
    28    12    13 ar  
    29    12    58 1   
    30    13    59 1   
    31    14    24 1   
    32    14    25 1   
    33    14    26 1   
    34    15    16 1   
    35    15    22 2   
    36    15    23 2   
    37    16    17 ar  
    38    16    20 ar  
    39    17    18 ar  
    40    17    60 1   
    41    18    21 ar  
    42    18    61 1   
    43    19    20 ar  
    44    19    21 ar  
    45    19    62 1   
    46    20    63 1   
    47    21    33 1   
    48    24    30 1   
    49    24    31 1   
    50    24    32 1   
    51    25    27 1   
    52    25    28 1   
    53    25    29 1   
    54    34    35 1   
    55    34    36 2   
    56    35    37 1   
    57    35    40 1   
    58    35    64 1   
    59    37    38 1   
    60    37    65 1   
    61    37    66 1   
    62    38    39 1   
    63    38    42 1   
    64    38    67 1   
    65    39    40 1   
    66    39    41 2   
    67    40    43 1   
    68    43    44 1   
    69    43    68 1   
    70    43    69 1   
    71    44    45 1   
    72    44    46 1   
    73    44    47 1   
    74    45    70 1   
    75    46    71 1   
    76    46    72 1   
    77    46    73 1   
    78    47    74 1   
    79    47    75 1   
    80    47    76 1   
@<TRIPOS>SUBSTRUCTURE
     1 Z8I         1 TEMP              0 ****  ****    0 ROOT
