@<TRIPOS>MOLECULE
Z8I
   76    80     1     0     0
SMALL
abcg2


@<TRIPOS>ATOM
      1 C1         -23.3970    -5.2260   -26.1660 c5         1 Z8I      -0.066400
      2 C2         -23.1080    -3.8000   -25.6960 c5         1 Z8I       0.109000
      3 N3         -24.1500    -3.5160   -24.7280 n          1 Z8I      -0.400800
      4 C4         -24.6390    -4.7220   -24.0980 c5         1 Z8I       0.131700
      5 C5         -24.4330    -5.8090   -25.1770 c5         1 Z8I      -0.183700
      6 C6         -23.9310    -5.0600   -22.7950 c6         1 Z8I      -0.087400
      7 C7         -24.4690    -6.3880   -22.2950 c6         1 Z8I      -0.036100
      8 C8         -24.1470    -7.4650   -23.2870 ca         1 Z8I      -0.060300
      9 C9         -24.0710    -7.1750   -24.6490 ca         1 Z8I      -0.053300
     10 C10        -23.8590    -8.7500   -22.8410 ca         1 Z8I      -0.063000
     11 C11        -23.4890    -9.7540   -23.7220 ca         1 Z8I      -0.138300
     12 C12        -23.3880    -9.4580   -25.0800 ca         1 Z8I      -0.075000
     13 C13        -23.6690    -8.1800   -25.5270 ca         1 Z8I      -0.103000
     14 C14        -23.2110   -11.1370   -23.1710 c3         1 Z8I       0.121300
     15 S15        -26.0340    -5.9470   -26.1010 sy         1 Z8I       1.025500
     16 C16        -27.1230    -6.7480   -24.9560 ca         1 Z8I      -0.284500
     17 C17        -27.9660    -5.9810   -24.1600 ca         1 Z8I       0.013000
     18 C18        -28.7650    -6.6030   -23.2150 ca         1 Z8I      -0.175000
     19 C19        -27.8820    -8.7580   -23.8930 ca         1 Z8I      -0.175000
     20 C20        -27.0900    -8.1340   -24.8400 ca         1 Z8I       0.013000
     21 C21        -28.6970    -7.9780   -23.0920 ca         1 Z8I       0.231000
     22 O22        -25.8360    -6.8270   -27.2490 o          1 Z8I      -0.507500
     23 O23        -26.5200    -4.5910   -26.3450 o          1 Z8I      -0.507500
     24 C24        -24.3660   -12.0990   -23.5210 c3         1 Z8I       0.302000
     25 C25        -21.8110   -11.6640   -23.5640 c3         1 Z8I       0.302000
     26 F26        -23.1900   -11.1000   -21.7980 f          1 Z8I      -0.208000
     27 F27        -21.4810   -12.7340   -22.8490 f          1 Z8I      -0.091500
     28 F28        -20.9020   -10.7220   -23.3310 f          1 Z8I      -0.091500
     29 F29        -21.7420   -11.9960   -24.8510 f          1 Z8I      -0.091500
     30 F30        -25.4970   -11.6120   -23.0210 f          1 Z8I      -0.091500
     31 F31        -24.1840   -13.3120   -23.0070 f          1 Z8I      -0.091500
     32 F32        -24.5150   -12.2280   -24.8350 f          1 Z8I      -0.091500
     33 F33        -29.4480    -8.5780   -22.1670 f          1 Z8I      -0.164000
     34 C34        -24.5910    -2.3120   -24.3330 c          1 Z8I       0.593100
     35 C35        -23.9240    -1.0890   -24.9690 c5         1 Z8I       0.030700
     36 O36        -25.4510    -2.1730   -23.4750 o          1 Z8I      -0.592100
     37 C37        -22.6180    -0.7570   -24.2260 c5         1 Z8I      -0.119400
     38 C38        -23.1320     0.0610   -23.0620 c5         1 Z8I       0.106300
     39 C39        -24.3720     0.7500   -23.6230 c          1 Z8I       0.545000
     40 N40        -24.7260     0.0890   -24.7440 n          1 Z8I      -0.393800
     41 O41        -24.9270     1.7110   -23.1320 o          1 Z8I      -0.509000
     42 F42        -22.2250     0.9970   -22.6050 f          1 Z8I      -0.236000
     43 C43        -25.9520     0.3270   -25.4710 c3         1 Z8I       0.080000
     44 C44        -25.7720     1.1820   -26.7370 c3         1 Z8I       0.170000
     45 O45        -24.8370     0.5670   -27.6120 oh         1 Z8I      -0.666000
     46 C46        -25.3240     2.5990   -26.3960 c3         1 Z8I      -0.104600
     47 C47        -27.1060     1.2130   -27.4710 c3         1 Z8I      -0.104600
     48 H49        -23.7530    -5.2320   -27.1960 hc         1 Z8I       0.072200
     49 H48        -22.4920    -5.8280   -26.1520 hc         1 Z8I       0.072200
     50 H50        -22.1190    -3.7410   -25.2370 h1         1 Z8I       0.054200
     51 H51        -23.1330    -3.1000   -26.5280 h1         1 Z8I       0.054200
     52 H52        -25.6930    -4.5850   -23.8490 h1         1 Z8I       0.083700
     53 H53        -22.8490    -5.1210   -22.9390 hc         1 Z8I       0.063200
     54 H54        -24.1260    -4.2670   -22.0730 hc         1 Z8I       0.063200
     55 H56        -25.5530    -6.3190   -22.1450 hc         1 Z8I       0.063700
     56 H55        -24.0400    -6.6390   -21.3240 hc         1 Z8I       0.063700
     57 H57        -23.9210    -8.9380   -21.7780 ha         1 Z8I       0.137000
     58 H58        -23.0910   -10.1970   -25.8090 ha         1 Z8I       0.139000
     59 H59        -23.5720    -7.9780   -26.5840 ha         1 Z8I       0.143000
     60 H60        -28.0100    -4.9060   -24.2680 ha         1 Z8I       0.144500
     61 H61        -29.4260    -6.0240   -22.5840 ha         1 Z8I       0.144000
     62 H62        -27.8630    -9.8330   -23.7790 ha         1 Z8I       0.144000
     63 H63        -26.4530    -8.7350   -25.4730 ha         1 Z8I       0.144500
     64 H64        -23.7570    -1.2380   -26.0340 h1         1 Z8I       0.094700
     65 H66        -22.0480    -1.6370   -23.9300 hc         1 Z8I       0.073700
     66 H65        -21.9910    -0.1370   -24.8680 hc         1 Z8I       0.073700
     67 H67        -23.4200    -0.5650   -22.2130 h1         1 Z8I       0.090700
     68 H69        -26.6700     0.8090   -24.8040 h1         1 Z8I       0.072700
     69 H68        -26.3780    -0.6390   -25.7520 h1         1 Z8I       0.072700
     70 H70        -23.9480     0.8080   -27.3330 ho         1 Z8I       0.439000
     71 H71        -26.0360     3.0880   -25.7320 hc         1 Z8I       0.046700
     72 H73        -24.3500     2.6070   -25.9030 hc         1 Z8I       0.046700
     73 H72        -25.2440     3.1960   -27.3060 hc         1 Z8I       0.046700
     74 H75        -27.8840     1.6430   -26.8390 hc         1 Z8I       0.046700
     75 H74        -27.0370     1.8200   -28.3750 hc         1 Z8I       0.046700
     76 H76        -27.4250     0.2090   -27.7590 hc         1 Z8I       0.046700
@<TRIPOS>BOND
     1     1     2 1   
     2     1     5 1   
     3     1    48 1   
     4     1    49 1   
     5     2     3 1   
     6     2    50 1   
     7     2    51 1   
     8     3     4 1   
     9     3    34 1   
    10     4     5 1   
    11     4     6 1   
    12     4    52 1   
    13     5     9 1   
    14     5    15 1   
    15     6     7 1   
    16     6    53 1   
    17     6    54 1   
    18     7     8 1   
    19     7    55 1   
    20     7    56 1   
    21     8     9 ar  
    22     8    10 ar  
    23     9    13 ar  
    24    10    11 ar  
    25    10    57 1   
    26    11    12 ar  
    27    11    14 1   
    28    12    13 ar  
    29    12    58 1   
    30    13    59 1   
    31    14    24 1   
    32    14    25 1   
    33    14    26 1   
    34    15    16 1   
    35    15    22 2   
    36    15    23 2   
    37    16    17 ar  
    38    16    20 ar  
    39    17    18 ar  
    40    17    60 1   
    41    18    21 ar  
    42    18    61 1   
    43    19    20 ar  
    44    19    21 ar  
    45    19    62 1   
    46    20    63 1   
    47    21    33 1   
    48    24    30 1   
    49    24    31 1   
    50    24    32 1   
    51    25    27 1   
    52    25    28 1   
    53    25    29 1   
    54    34    35 1   
    55    34    36 2   
    56    35    37 1   
    57    35    40 1   
    58    35    64 1   
    59    37    38 1   
    60    37    65 1   
    61    37    66 1   
    62    38    39 1   
    63    38    42 1   
    64    38    67 1   
    65    39    40 1   
    66    39    41 2   
    67    40    43 1   
    68    43    44 1   
    69    43    68 1   
    70    43    69 1   
    71    44    45 1   
    72    44    46 1   
    73    44    47 1   
    74    45    70 1   
    75    46    71 1   
    76    46    72 1   
    77    46    73 1   
    78    47    74 1   
    79    47    75 1   
    80    47    76 1   
@<TRIPOS>SUBSTRUCTURE
     1 Z8I         1 TEMP              0 ****  ****    0 ROOT
