@<TRIPOS>MOLECULE
Z8O
   48    52     1     0     0
SMALL
abcg2


@<TRIPOS>ATOM
      1 C4         -18.8790    24.4360    -7.7510 ca         1 Z8O      -0.027000
      2 C5         -19.0970    23.1430    -8.2260 ca         1 Z8O      -0.140300
      3 C6         -20.3120    22.7920    -8.7790 ca         1 Z8O      -0.073000
      4 C7         -17.8820    22.2960    -8.0010 c5         1 Z8O      -0.037100
      5 C8         -16.8200    23.3060    -7.5520 c5         1 Z8O       0.100000
      6 C13        -14.9950    26.7770    -5.7440 ca         1 Z8O      -0.058300
      7 C15        -13.9010    28.9010    -6.0960 ca         1 Z8O      -0.083500
      8 C17        -14.4840    28.2180    -3.8730 ca         1 Z8O      -0.083500
      9 C20        -13.9540    31.3070    -3.3110 ca         1 Z8O      -0.111900
     10 C21        -15.3000    31.1760    -2.9450 ca         1 Z8O      -0.097000
     11 C22        -15.8820    32.0980    -2.1010 ca         1 Z8O      -0.085000
     12 C24        -13.8230    33.3290    -1.9680 ca         1 Z8O      -0.054000
     13 C26        -11.8390    32.5940    -3.2470 c          1 Z8O       0.553600
     14 C1         -21.3230    23.7460    -8.8620 ca         1 Z8O      -0.135000
     15 C2         -21.1010    25.0300    -8.3860 ca         1 Z8O      -0.089000
     16 C3         -19.8810    25.3970    -7.8220 ca         1 Z8O      -0.116000
     17 N9         -17.5680    24.5390    -7.2580 n          1 Z8O      -0.226400
     18 O11        -17.6540    26.6480    -6.4450 o          1 Z8O      -0.571100
     19 C12        -15.5560    25.4990    -6.2870 c3         1 Z8O      -0.113100
     20 C14        -14.4360    27.7250    -6.5950 ca         1 Z8O      -0.096500
     21 C16        -13.9180    29.1620    -4.7280 ca         1 Z8O      -0.112900
     22 C18        -15.0140    27.0410    -4.3780 ca         1 Z8O      -0.096500
     23 C19        -13.2730    30.3830    -4.1980 cc         1 Z8O       0.421500
     24 C23        -15.1440    33.1740    -1.6040 ca         1 Z8O      -0.113000
     25 C25        -13.2270    32.4040    -2.8250 ca         1 Z8O      -0.148600
     26 N28        -11.4050    31.6540    -4.1350 ns         1 Z8O      -0.237900
     27 N29        -12.0610    30.5830    -4.5840 nd         1 Z8O      -0.421300
     28 H1         -20.4740    21.7850    -9.1440 ha         1 Z8O       0.113000
     29 H2         -17.5700    21.7600    -8.8970 hc         1 Z8O       0.061200
     30 H3         -18.0690    21.5470    -7.2280 hc         1 Z8O       0.061200
     31 H4         -16.2810    22.9620    -6.6720 h1         1 Z8O       0.048700
     32 H5         -16.0910    23.4940    -8.3430 h1         1 Z8O       0.048700
     33 H6         -13.4670    29.6250    -6.7740 ha         1 Z8O       0.121500
     34 H7         -14.4890    28.3860    -2.8030 ha         1 Z8O       0.121500
     35 H8         -15.8930    30.3580    -3.3310 ha         1 Z8O       0.133000
     36 H9         -16.9230    31.9880    -1.8260 ha         1 Z8O       0.120000
     37 H10        -13.2480    34.1680    -1.6010 ha         1 Z8O       0.140000
     38 H11        -22.2790    23.4860    -9.2970 ha         1 Z8O       0.115000
     39 H12        -21.8880    25.7700    -8.4510 ha         1 Z8O       0.115000
     40 H13        -19.7350    26.4010    -7.4610 ha         1 Z8O       0.148000
     41 H14        -15.4490    24.6980    -5.5480 hc         1 Z8O       0.067700
     42 H15        -14.9840    25.1770    -7.1620 hc         1 Z8O       0.067700
     43 H16        -14.4110    27.5390    -7.6620 ha         1 Z8O       0.115000
     44 H17        -15.4340    26.3120    -3.6960 ha         1 Z8O       0.115000
     45 H18        -15.6110    33.8890    -0.9410 ha         1 Z8O       0.121000
     46 H19        -10.4570    31.7300    -4.4770 hn         1 Z8O       0.353500
     47 C10        -17.0220    25.6310    -6.6650 c          1 Z8O       0.612100
     48 O27        -11.1100    33.5010    -2.8760 o          1 Z8O      -0.543000
@<TRIPOS>BOND
     1     1     2 ar  
     2     1    16 ar  
     3     1    17 1   
     4     2     3 ar  
     5     2     4 1   
     6     3    14 ar  
     7     3    28 1   
     8     4     5 1   
     9     4    29 1   
    10     4    30 1   
    11     5    17 1   
    12     5    31 1   
    13     5    32 1   
    14     6    19 1   
    15     6    20 ar  
    16     6    22 ar  
    17     7    20 ar  
    18     7    21 ar  
    19     7    33 1   
    20     8    21 ar  
    21     8    22 ar  
    22     8    34 1   
    23     9    10 ar  
    24     9    23 1   
    25     9    25 ar  
    26    10    11 ar  
    27    10    35 1   
    28    11    24 ar  
    29    11    36 1   
    30    12    24 ar  
    31    12    25 ar  
    32    12    37 1   
    33    13    25 1   
    34    13    26 1   
    35    13    48 2   
    36    14    15 ar  
    37    14    38 1   
    38    15    16 ar  
    39    15    39 1   
    40    16    40 1   
    41    17    47 1   
    42    18    47 2   
    43    19    41 1   
    44    19    42 1   
    45    19    47 1   
    46    20    43 1   
    47    21    23 1   
    48    22    44 1   
    49    23    27 2   
    50    24    45 1   
    51    26    27 1   
    52    26    46 1   
@<TRIPOS>SUBSTRUCTURE
     1 Z8O         1 TEMP              0 ****  ****    0 ROOT
