@<TRIPOS>MOLECULE
Z8O
   48    52     1     0     0
SMALL
No Charge or Current Charge


@<TRIPOS>ATOM
      1 C4         -18.9720    24.3950    -7.7720 ca         1 Z8O      -0.027000
      2 C5         -19.1840    23.1060    -8.2160 ca         1 Z8O      -0.140300
      3 C6         -20.4360    22.7110    -8.7140 ca         1 Z8O      -0.073000
      4 C7         -17.9500    22.2330    -8.0960 c5         1 Z8O      -0.037100
      5 C8         -16.8800    23.2220    -7.4790 c5         1 Z8O       0.100000
      6 C13        -14.8960    26.8330    -5.8070 ca         1 Z8O      -0.058300
      7 C15        -13.6930    28.9300    -6.1380 ca         1 Z8O      -0.083500
      8 C17        -14.3900    28.2740    -3.9050 ca         1 Z8O      -0.083500
      9 C20        -13.8920    31.3470    -3.3170 ca         1 Z8O      -0.111900
     10 C21        -15.2790    31.2020    -3.0720 ca         1 Z8O      -0.097000
     11 C22        -15.9540    32.0910    -2.2190 ca         1 Z8O      -0.085000
     12 C24        -13.8950    33.3320    -1.8730 ca         1 Z8O      -0.054000
     13 C26        -11.7630    32.6620    -3.0660 c          1 Z8O       0.553600
     14 C1         -21.4800    23.6550    -8.7550 ca         1 Z8O      -0.135000
     15 C2         -21.2640    24.9730    -8.3010 ca         1 Z8O      -0.089000
     16 C3         -20.0030    25.3540    -7.8030 ca         1 Z8O      -0.116000
     17 N9         -17.6260    24.5060    -7.3290 n          1 Z8O      -0.226400
     18 O11        -17.5860    26.7250    -6.6670 o          1 Z8O      -0.571100
     19 C12        -15.5050    25.5530    -6.3720 c3         1 Z8O      -0.113100
     20 C14        -14.2570    27.7520    -6.6590 ca         1 Z8O      -0.096500
     21 C16        -13.7760    29.2160    -4.7590 ca         1 Z8O      -0.112900
     22 C18        -14.9530    27.0970    -4.4270 ca         1 Z8O      -0.096500
     23 C19        -13.1460    30.4260    -4.2130 cc         1 Z8O       0.421500
     24 C23        -15.2620    33.1490    -1.6120 ca         1 Z8O      -0.113000
     25 C25        -13.2120    32.4440    -2.7310 ca         1 Z8O      -0.148600
     26 N28        -11.2470    31.7490    -3.9650 ns         1 Z8O      -0.237900
     27 N29        -11.8720    30.6610    -4.5440 nd         1 Z8O      -0.421300
     28 H1         -20.5970    21.6930    -9.0630 ha         1 Z8O       0.113000
     29 H2         -17.6240    21.8480    -9.0690 hc         1 Z8O       0.061200
     30 H3         -18.1200    21.3690    -7.4440 hc         1 Z8O       0.061200
     31 H4         -16.5200    22.8540    -6.5090 h1         1 Z8O       0.048700
     32 H5         -16.0190    23.3370    -8.1500 h1         1 Z8O       0.048700
     33 H6         -13.1990    29.6270    -6.8110 ha         1 Z8O       0.121500
     34 H7         -14.4270    28.4520    -2.8320 ha         1 Z8O       0.121500
     35 H8         -15.8510    30.4070    -3.5430 ha         1 Z8O       0.133000
     36 H9         -17.0180    31.9620    -2.0330 ha         1 Z8O       0.120000
     37 H10        -13.3720    34.1700    -1.4180 ha         1 Z8O       0.140000
     38 H11        -22.4570    23.3660    -9.1370 ha         1 Z8O       0.115000
     39 H12        -22.0750    25.6970    -8.3340 ha         1 Z8O       0.115000
     40 H13        -19.8540    26.3730    -7.4580 ha         1 Z8O       0.148000
     41 H14        -15.4100    24.7130    -5.6760 hc         1 Z8O       0.067700
     42 H15        -14.9360    25.1720    -7.2270 hc         1 Z8O       0.067700
     43 H16        -14.1960    27.5550    -7.7270 ha         1 Z8O       0.115000
     44 H17        -15.4310    26.3870    -3.7550 ha         1 Z8O       0.115000
     45 H18        -15.7870    33.8370    -0.9540 ha         1 Z8O       0.121000
     46 H19        -10.2740    31.9160    -4.2070 hn         1 Z8O       0.353500
     47 C10        -16.9890    25.6620    -6.7950 c          1 Z8O       0.612100
     48 O27        -11.0880    33.5710    -2.6030 o          1 Z8O      -0.543000
@<TRIPOS>BOND
     1     1     2 ar  
     2     1    16 ar  
     3     1    17 1   
     4     2     3 ar  
     5     2     4 1   
     6     3    14 ar  
     7     3    28 1   
     8     4     5 1   
     9     4    29 1   
    10     4    30 1   
    11     5    17 1   
    12     5    31 1   
    13     5    32 1   
    14     6    19 1   
    15     6    20 ar  
    16     6    22 ar  
    17     7    20 ar  
    18     7    21 ar  
    19     7    33 1   
    20     8    21 ar  
    21     8    22 ar  
    22     8    34 1   
    23     9    10 ar  
    24     9    23 1   
    25     9    25 ar  
    26    10    11 ar  
    27    10    35 1   
    28    11    24 ar  
    29    11    36 1   
    30    12    24 ar  
    31    12    25 ar  
    32    12    37 1   
    33    13    25 1   
    34    13    26 1   
    35    13    48 2   
    36    14    15 ar  
    37    14    38 1   
    38    15    16 ar  
    39    15    39 1   
    40    16    40 1   
    41    17    47 1   
    42    18    47 2   
    43    19    41 1   
    44    19    42 1   
    45    19    47 1   
    46    20    43 1   
    47    21    23 1   
    48    22    44 1   
    49    23    27 2   
    50    24    45 1   
    51    26    27 1   
    52    26    46 1   
@<TRIPOS>SUBSTRUCTURE
     1 Z8O         1 TEMP              0 ****  ****    0 ROOT
