@<TRIPOS>MOLECULE
Z8R
   35    36     1     0     0
SMALL
No Charge or Current Charge


@<TRIPOS>ATOM
      1 C2          -3.4960    -0.2780     0.3240 ca         1 Z8R      -0.065000
      2 O2           6.0830     0.5780     1.2780 o          1 Z8R      -0.537000
      3 C4          -2.9940     1.8410    -0.7530 ca         1 Z8R      -0.118000
      4 C5          -4.3560     2.0140    -1.0400 ca         1 Z8R      -0.151000
      5 C7          -1.0790     0.5040     0.2400 cp         1 Z8R       0.026000
      6 C6          -5.2910     1.0440    -0.6460 ca         1 Z8R      -0.071000
      7 C8          -0.2500     1.6070     0.5610 ca         1 Z8R      -0.114500
      8 C1          -4.8740    -0.1170     0.0430 ca         1 Z8R      -0.140600
      9 C10         -0.4830    -0.7820     0.2180 ca         1 Z8R      -0.114500
     10 C11          0.8820    -0.9580     0.5050 ca         1 Z8R      -0.093500
     11 C12          1.6890     0.1500     0.8240 ca         1 Z8R      -0.133300
     12 C13          3.1660    -0.0360     1.1380 c3         1 Z8R       0.257100
     13 C14          5.7240    -1.7420     0.0280 c3         1 Z8R      -0.391100
     14 C3          -2.5350     0.6910    -0.0660 cp         1 Z8R      -0.098000
     15 C9           1.1150     1.4340     0.8490 ca         1 Z8R      -0.093500
     16 N            3.9660     0.2970    -0.0450 n7         1 Z8R      -0.863300
     17 O           -5.4800    -2.1640     1.0600 o          1 Z8R      -0.718500
     18 O1          -7.0660    -0.9830     0.2240 o          1 Z8R      -0.718500
     19 O3           6.1350     0.5520    -1.2610 o          1 Z8R      -0.537000
     20 S            5.6070     0.0370     0.0030 s6         1 Z8R       1.194100
     21 H           -3.1640    -1.1590     0.8670 ha         1 Z8R       0.129000
     22 H1          -2.2870     2.6000    -1.0800 ha         1 Z8R       0.087000
     23 H2          -4.6880     2.9020    -1.5720 ha         1 Z8R       0.088000
     24 H3          -6.3420     1.2000    -0.8790 ha         1 Z8R       0.129000
     25 H4          -0.6720     2.6080     0.6000 ha         1 Z8R       0.123500
     26 H6          -1.0810    -1.6520    -0.0380 ha         1 Z8R       0.123500
     27 H7           1.3100    -1.9580     0.4770 ha         1 Z8R       0.105000
     28 H9           3.4360     0.6130     1.9830 h1         1 Z8R       0.049700
     29 H8           3.3340    -1.0730     1.4580 h1         1 Z8R       0.049700
     30 H13          5.2540    -2.1060     0.9470 h1         1 Z8R       0.097700
     31 H11          5.2220    -2.1320    -0.8630 h1         1 Z8R       0.097700
     32 H12          6.7900    -1.9940     0.0160 h1         1 Z8R       0.097700
     33 H5           1.7270     2.3000     1.0930 ha         1 Z8R       0.105000
     34 H10          3.6910    -0.3350    -0.7930 hn         1 Z8R       0.485000
     35 C           -5.8840    -1.1680     0.4760 c          1 Z8R       0.713600
@<TRIPOS>BOND
     1     1     8 ar  
     2     1    14 ar  
     3     1    21 1   
     4     2    20 2   
     5     3     4 ar  
     6     3    14 ar  
     7     3    22 1   
     8     4     6 ar  
     9     4    23 1   
    10     5     7 ar  
    11     5     9 ar  
    12     5    14 1   
    13     6     8 ar  
    14     6    24 1   
    15     7    15 ar  
    16     7    25 1   
    17     8    35 1   
    18     9    10 ar  
    19     9    26 1   
    20    10    11 ar  
    21    10    27 1   
    22    11    12 1   
    23    11    15 ar  
    24    12    16 1   
    25    12    28 1   
    26    12    29 1   
    27    13    20 1   
    28    13    30 1   
    29    13    31 1   
    30    13    32 1   
    31    15    33 1   
    32    16    20 1   
    33    16    34 1   
    34    17    35 1   
    35    18    35 1   
    36    19    20 2   
@<TRIPOS>SUBSTRUCTURE
     1 Z8R         1 TEMP              0 ****  ****    0 ROOT
