@<TRIPOS>MOLECULE
Z8R
   35    36     1     0     0
SMALL
abcg2


@<TRIPOS>ATOM
      1 C2          -3.5590    -0.2050     0.3630 ca         1 Z8R      -0.065000
      2 O2           5.6190     1.0310     1.3160 o          1 Z8R      -0.537000
      3 C4          -2.9360     1.8190    -0.7620 ca         1 Z8R      -0.118000
      4 C5          -4.2760     2.0920    -0.9910 ca         1 Z8R      -0.151000
      5 C7          -1.1340     0.3600     0.1720 cp         1 Z8R       0.026000
      6 C6          -5.2570     1.2180    -0.5430 ca         1 Z8R      -0.071000
      7 C8          -0.2110     1.3850     0.4070 ca         1 Z8R      -0.114500
      8 C1          -4.9060     0.0560     0.1380 ca         1 Z8R      -0.140600
      9 C10         -0.6670    -0.9530     0.1830 ca         1 Z8R      -0.114500
     10 C11          0.6710    -1.2340     0.4230 ca         1 Z8R      -0.093500
     11 C12          1.5810    -0.2120     0.6580 ca         1 Z8R      -0.133300
     12 C13          3.0310    -0.5130     0.9180 c3         1 Z8R       0.257100
     13 C14          6.2000    -1.3120     0.2990 c3         1 Z8R      -0.391100
     14 C3          -2.5580     0.6610    -0.0780 cp         1 Z8R      -0.098000
     15 C9           1.1230     1.1030     0.6420 ca         1 Z8R      -0.093500
     16 N            3.8460     0.0570    -0.1520 n7         1 Z8R      -0.863300
     17 O           -5.5740    -1.9290     1.2300 o          1 Z8R      -0.718500
     18 O1          -7.1590    -0.6000     0.4000 o          1 Z8R      -0.718500
     19 O3           5.9650     0.8560    -1.1660 o          1 Z8R      -0.537000
     20 S            5.4590     0.2890     0.0740 s6         1 Z8R       1.194100
     21 H           -3.2920    -1.0990     0.9110 ha         1 Z8R       0.129000
     22 H1          -2.1820     2.5000    -1.1350 ha         1 Z8R       0.087000
     23 H2          -4.5540     2.9910    -1.5270 ha         1 Z8R       0.088000
     24 H3          -6.3010     1.4380    -0.7230 ha         1 Z8R       0.129000
     25 H4          -0.5420     2.4160     0.4280 ha         1 Z8R       0.123500
     26 H6          -1.3470    -1.7720    -0.0170 ha         1 Z8R       0.123500
     27 H7           1.0080    -2.2640     0.4180 ha         1 Z8R       0.105000
     28 H9           3.3400    -0.0600     1.8600 h1         1 Z8R       0.049700
     29 H8           3.1750    -1.5940     1.0110 h1         1 Z8R       0.049700
     30 H13          5.7630    -1.8020     1.1660 h1         1 Z8R       0.097700
     31 H11          6.0410    -1.9120    -0.5940 h1         1 Z8R       0.097700
     32 H12          7.2670    -1.1660     0.4630 h1         1 Z8R       0.097700
     33 H5           1.8150     1.9170     0.8240 ha         1 Z8R       0.105000
     34 H10          3.6380    -0.3160    -1.0730 hn         1 Z8R       0.485000
     35 C           -5.9760    -0.9110     0.6340 c          1 Z8R       0.713600
@<TRIPOS>BOND
     1     1     8 ar  
     2     1    14 ar  
     3     1    21 1   
     4     2    20 2   
     5     3     4 ar  
     6     3    14 ar  
     7     3    22 1   
     8     4     6 ar  
     9     4    23 1   
    10     5     7 ar  
    11     5     9 ar  
    12     5    14 1   
    13     6     8 ar  
    14     6    24 1   
    15     7    15 ar  
    16     7    25 1   
    17     8    35 1   
    18     9    10 ar  
    19     9    26 1   
    20    10    11 ar  
    21    10    27 1   
    22    11    12 1   
    23    11    15 ar  
    24    12    16 1   
    25    12    28 1   
    26    12    29 1   
    27    13    20 1   
    28    13    30 1   
    29    13    31 1   
    30    13    32 1   
    31    15    33 1   
    32    16    20 1   
    33    16    34 1   
    34    17    35 1   
    35    18    35 1   
    36    19    20 2   
@<TRIPOS>SUBSTRUCTURE
     1 Z8R         1 TEMP              0 ****  ****    0 ROOT
