@<TRIPOS>MOLECULE
Z8T
   24    24     1     0     0
SMALL
bcc


@<TRIPOS>ATOM
      1 O1          12.1330    16.5640    11.3110 oh         1 Z8T      -0.576800
      2 C1          12.1520    17.0960    10.0290 c6         1 Z8T       0.367900
      3 O5          13.5040    17.2810     9.7450 os         1 Z8T      -0.380600
      4 C5          13.7480    17.9180     8.5070 c6         1 Z8T       0.156100
      5 C4          13.2130    17.0470     7.3680 c6         1 Z8T       0.116100
      6 C3          11.7370    16.7510     7.6040 c6         1 Z8T       0.080100
      7 C2          11.5310    16.1600     8.9940 c6         1 Z8T       0.041100
      8 O2          10.1650    16.0260     9.3160 oh         1 Z8T      -0.605800
      9 O3          11.3030    15.8700     6.5900 oh         1 Z8T      -0.605800
     10 O4          13.4100    17.7350     6.1580 oh         1 Z8T      -0.594800
     11 C6          15.2400    18.1460     8.3950 c3         1 Z8T       0.150400
     12 O6          15.6400    19.0380     9.4070 oh         1 Z8T      -0.585800
     13 HO1         11.2240    16.3340    11.5320 ho         1 Z8T       0.432000
     14 H1          11.6200    18.0670     9.9950 h2         1 Z8T       0.030700
     15 H5          13.2340    18.8920     8.4740 h1         1 Z8T       0.061700
     16 H4          13.7680    16.0950     7.3750 h1         1 Z8T       0.057700
     17 H3          11.1870    17.7020     7.5500 h1         1 Z8T       0.055700
     18 H2          12.0500    15.1920     9.0580 h1         1 Z8T       0.069700
     19 HO2          9.8260    15.2230     8.9110 ho         1 Z8T       0.416000
     20 HO3         10.3730    16.0350     6.4100 ho         1 Z8T       0.414000
     21 HO4         13.0500    17.1920     5.4490 ho         1 Z8T       0.423000
     22 H61         15.7570    17.1790     8.4750 h1         1 Z8T       0.037200
     23 H62         15.4540    18.5420     7.3970 h1         1 Z8T       0.037200
     24 HO6         16.5620    19.2640     9.2570 ho         1 Z8T       0.405000
@<TRIPOS>BOND
     1     1     2 1   
     2     1    13 1   
     3     2     3 1   
     4     2     7 1   
     5     2    14 1   
     6     3     4 1   
     7     4     5 1   
     8     4    11 1   
     9     4    15 1   
    10     5     6 1   
    11     5    10 1   
    12     5    16 1   
    13     6     7 1   
    14     6     9 1   
    15     6    17 1   
    16     7     8 1   
    17     7    18 1   
    18     8    19 1   
    19     9    20 1   
    20    10    21 1   
    21    11    12 1   
    22    11    22 1   
    23    11    23 1   
    24    12    24 1   
@<TRIPOS>SUBSTRUCTURE
     1 Z8T         1 TEMP              0 ****  ****    0 ROOT
