@<TRIPOS>MOLECULE
Z8T
   24    24     1     0     0
SMALL
No Charge or Current Charge


@<TRIPOS>ATOM
      1 O1          11.9800    16.6000    11.3360 oh         1 Z8T      -0.699000
      2 C1          12.1030    17.1550    10.0350 c6         1 Z8T       0.414300
      3 O5          13.5020    17.3560     9.7860 os         1 Z8T      -0.427000
      4 C5          13.7810    17.9780     8.5020 c6         1 Z8T       0.179300
      5 C4          13.2480    17.0690     7.3480 c6         1 Z8T       0.139300
      6 C3          11.7310    16.7860     7.5600 c6         1 Z8T       0.103300
      7 C2          11.5020    16.1720     8.9740 c6         1 Z8T       0.064300
      8 O2          10.0930    15.9240     9.2170 oh         1 Z8T      -0.728000
      9 O3          11.2380    15.9180     6.5190 oh         1 Z8T      -0.728000
     10 O4          13.4360    17.6560     6.0490 oh         1 Z8T      -0.717000
     11 C6          15.3220    18.2310     8.3980 c3         1 Z8T       0.173600
     12 O6          15.8480    19.0260     9.4830 oh         1 Z8T      -0.708000
     13 HO1         11.0480    16.2830    11.3590 ho         1 Z8T       0.531000
     14 H1          11.5760    18.1210     9.9910 h2         1 Z8T       0.030700
     15 H5          13.2720    18.9520     8.4630 h1         1 Z8T       0.061700
     16 H4          13.7850    16.1090     7.3990 h1         1 Z8T       0.057700
     17 H3          11.1980    17.7490     7.5210 h1         1 Z8T       0.055700
     18 H2          12.0690    15.2300     9.0360 h1         1 Z8T       0.069700
     19 HO2          9.9200    14.9720     9.0170 ho         1 Z8T       0.515000
     20 HO3         10.2680    15.8250     6.6740 ho         1 Z8T       0.513000
     21 HO4         12.7880    17.1780     5.4750 ho         1 Z8T       0.522000
     22 H61         15.8260    17.2550     8.3690 h1         1 Z8T       0.037200
     23 H62         15.5240    18.7280     7.4400 h1         1 Z8T       0.037200
     24 HO6         16.8240    19.0760     9.3560 ho         1 Z8T       0.504000
@<TRIPOS>BOND
     1     1     2 1   
     2     1    13 1   
     3     2     3 1   
     4     2     7 1   
     5     2    14 1   
     6     3     4 1   
     7     4     5 1   
     8     4    11 1   
     9     4    15 1   
    10     5     6 1   
    11     5    10 1   
    12     5    16 1   
    13     6     7 1   
    14     6     9 1   
    15     6    17 1   
    16     7     8 1   
    17     7    18 1   
    18     8    19 1   
    19     9    20 1   
    20    10    21 1   
    21    11    12 1   
    22    11    22 1   
    23    11    23 1   
    24    12    24 1   
@<TRIPOS>SUBSTRUCTURE
     1 Z8T         1 TEMP              0 ****  ****    0 ROOT
