@<TRIPOS>MOLECULE
Z8V
   34    34     1     0     0
SMALL
No Charge or Current Charge


@<TRIPOS>ATOM
      1 CAA        -12.5200     9.8970   -10.0330 c3         1 Z8V      -0.179100
      2 CAG        -12.6060    18.0870    -8.8840 c3         1 Z8V       0.161600
      3 CAH         -9.7960    13.9600    -9.1020 c3         1 Z8V       0.169600
      4 CAK        -12.9000    11.1960    -9.3400 c          1 Z8V       0.609100
      5 CAL        -12.5610    16.6590    -9.5300 c6         1 Z8V       0.142500
      6 CAM        -11.1480    14.5780    -9.6180 c6         1 Z8V       0.163500
      7 CAN        -13.8210    15.8100    -9.1670 c6         1 Z8V       0.112300
      8 CAO        -13.6870    14.3680    -9.7340 c6         1 Z8V       0.153300
      9 CAP        -12.3770    13.6870    -9.2320 c6         1 Z8V       0.032700
     10 NAI        -12.2380    12.3160    -9.7860 ns         1 Z8V      -0.498900
     11 NAJ        -11.3010    15.9770    -9.1150 n7         1 Z8V      -0.839400
     12 OAB        -13.7470    11.2600    -8.4630 o          1 Z8V      -0.612100
     13 OAC        -12.4960    18.0570    -7.4450 oh         1 Z8V      -0.675000
     14 OAE        -15.0280    16.4070    -9.6750 oh         1 Z8V      -0.644000
     15 OAF        -14.8440    13.5980    -9.3540 oh         1 Z8V      -0.633000
     16 H1         -13.0830     9.0360    -9.6530 hc         1 Z8V       0.061367
     17 H2         -12.6490    10.0180   -11.1150 hc         1 Z8V       0.061367
     18 H3         -11.4390     9.7470    -9.9420 hc         1 Z8V       0.061367
     19 H4         -11.7800    18.6740    -9.3080 h1         1 Z8V       0.034700
     20 H5         -13.5390    18.5830    -9.1850 h1         1 Z8V       0.034700
     21 H6          -9.8300    13.9230    -8.0050 h1         1 Z8V       0.024700
     22 H7          -9.7210    12.9240    -9.4580 h1         1 Z8V       0.024700
     23 H8         -12.5450    16.7920   -10.6230 h1         1 Z8V       0.073700
     24 H9         -11.0880    14.6110   -10.7170 h1         1 Z8V       0.070700
     25 H10        -13.8820    15.7360    -8.0700 h1         1 Z8V       0.044700
     26 H11        -13.6310    14.4360   -10.8320 h1         1 Z8V       0.082700
     27 H12        -12.4160    13.6130    -8.1340 h1         1 Z8V       0.082700
     28 H13        -11.5790    12.1640   -10.5420 hn         1 Z8V       0.313500
     29 H14        -11.2650    15.9850    -8.0880 hn         1 Z8V       0.428000
     30 H16        -12.4980    18.9910    -7.1400 ho         1 Z8V       0.449000
     31 H17         -7.8580    14.2850    -9.0890 ho         1 Z8V       0.441000
     32 H18        -15.6950    15.6830    -9.6550 ho         1 Z8V       0.447000
     33 H19        -14.4950    12.7440    -8.9890 ho         1 Z8V       0.446000
     34 OAD         -8.6340    14.6920    -9.5340 oh         1 Z8V      -0.644000
@<TRIPOS>BOND
     1     1     4 1   
     2     1    16 1   
     3     1    17 1   
     4     1    18 1   
     5     2     5 1   
     6     2    13 1   
     7     2    19 1   
     8     2    20 1   
     9     3     6 1   
    10     3    21 1   
    11     3    22 1   
    12     3    34 1   
    13     4    10 1   
    14     4    12 2   
    15     5     7 1   
    16     5    11 1   
    17     5    23 1   
    18     6     9 1   
    19     6    11 1   
    20     6    24 1   
    21     7     8 1   
    22     7    14 1   
    23     7    25 1   
    24     8     9 1   
    25     8    15 1   
    26     8    26 1   
    27     9    10 1   
    28     9    27 1   
    29    10    28 1   
    30    11    29 1   
    31    13    30 1   
    32    14    32 1   
    33    15    33 1   
    34    31    34 1   
@<TRIPOS>SUBSTRUCTURE
     1 Z8V         1 TEMP              0 ****  ****    0 ROOT
