@<TRIPOS>MOLECULE
Z8V
   34    34     1     0     0
SMALL
abcg2


@<TRIPOS>ATOM
      1 CAA        -12.3030     9.9450   -10.1280 c3         1 Z8V      -0.179100
      2 CAG        -12.6370    17.9520    -8.9510 c3         1 Z8V       0.161600
      3 CAH         -9.9140    13.9270    -9.0430 c3         1 Z8V       0.169600
      4 CAK        -12.4600    11.1780    -9.2720 c          1 Z8V       0.609100
      5 CAL        -12.5780    16.5360    -9.4970 c6         1 Z8V       0.142500
      6 CAM        -11.1900    14.5490    -9.5840 c6         1 Z8V       0.163500
      7 CAN        -13.8450    15.7170    -9.1970 c6         1 Z8V       0.112300
      8 CAO        -13.7030    14.3170    -9.7870 c6         1 Z8V       0.153300
      9 CAP        -12.4070    13.6480    -9.3040 c6         1 Z8V       0.032700
     10 NAI        -12.2640    12.3470    -9.9120 ns         1 Z8V      -0.498900
     11 NAJ        -11.3730    15.8750    -9.0300 n7         1 Z8V      -0.839400
     12 OAB        -12.7230    11.0980    -8.0800 o          1 Z8V      -0.612100
     13 OAC        -12.7760    17.8990    -7.5470 oh         1 Z8V      -0.675000
     14 OAE        -14.9950    16.3050    -9.7610 oh         1 Z8V      -0.644000
     15 OAF        -14.8260    13.5100    -9.5330 oh         1 Z8V      -0.633000
     16 H1         -13.1970     9.3290   -10.0430 hc         1 Z8V       0.061367
     17 H2         -12.1280    10.1590   -11.1810 hc         1 Z8V       0.061367
     18 H3         -11.4660     9.3530    -9.7550 hc         1 Z8V       0.061367
     19 H4         -11.7160    18.4690    -9.2470 h1         1 Z8V       0.034700
     20 H5         -13.4680    18.4920    -9.4200 h1         1 Z8V       0.034700
     21 H6         -10.0050    13.8360    -7.9490 h1         1 Z8V       0.024700
     22 H7          -9.8160    12.9100    -9.4370 h1         1 Z8V       0.024700
     23 H8         -12.4980    16.6320   -10.5880 h1         1 Z8V       0.073700
     24 H9         -11.0870    14.6530   -10.6730 h1         1 Z8V       0.070700
     25 H10        -13.9490    15.6150    -8.1050 h1         1 Z8V       0.044700
     26 H11        -13.6500    14.4120   -10.8800 h1         1 Z8V       0.082700
     27 H12        -12.4730    13.4960    -8.2220 h1         1 Z8V       0.082700
     28 H13        -12.0910    12.3220   -10.9050 hn         1 Z8V       0.313500
     29 H14        -11.3800    15.8220    -8.0170 hn         1 Z8V       0.428000
     30 H16        -12.7630    18.7970    -7.2050 ho         1 Z8V       0.449000
     31 H17         -8.0140    14.2760    -9.1270 ho         1 Z8V       0.441000
     32 H18        -15.2890    17.0200    -9.1890 ho         1 Z8V       0.447000
     33 H19        -14.8960    13.3710    -8.5810 ho         1 Z8V       0.446000
     34 OAD         -8.8150    14.7270    -9.4090 oh         1 Z8V      -0.644000
@<TRIPOS>BOND
     1     1     4 1   
     2     1    16 1   
     3     1    17 1   
     4     1    18 1   
     5     2     5 1   
     6     2    13 1   
     7     2    19 1   
     8     2    20 1   
     9     3     6 1   
    10     3    21 1   
    11     3    22 1   
    12     3    34 1   
    13     4    10 1   
    14     4    12 2   
    15     5     7 1   
    16     5    11 1   
    17     5    23 1   
    18     6     9 1   
    19     6    11 1   
    20     6    24 1   
    21     7     8 1   
    22     7    14 1   
    23     7    25 1   
    24     8     9 1   
    25     8    15 1   
    26     8    26 1   
    27     9    10 1   
    28     9    27 1   
    29    10    28 1   
    30    11    29 1   
    31    13    30 1   
    32    14    32 1   
    33    15    33 1   
    34    31    34 1   
@<TRIPOS>SUBSTRUCTURE
     1 Z8V         1 TEMP              0 ****  ****    0 ROOT
