@<TRIPOS>MOLECULE
Z8Z
   97   100     1     0     0
SMALL
bcc


@<TRIPOS>ATOM
      1 O30          6.5030    -1.1030     0.1950 o          1 Z8Z      -0.586000
      2 C29          5.7520    -0.1620     0.0500 c          1 Z8Z       0.759100
      3 O31          5.9920     0.8490    -0.8010 os         1 Z8Z      -0.437900
      4 C32          7.1860     0.7580    -1.5760 c3         1 Z8Z       0.143100
      5 C33          7.2090     1.9120    -2.4970 cc         1 Z8Z       0.125700
      6 O37          6.3010     1.9720    -3.5060 os         1 Z8Z      -0.336800
      7 C36          6.5800     3.1000    -4.1630 cc         1 Z8Z       0.483300
      8 N35          7.5730     3.7580    -3.6800 nd         1 Z8Z      -0.677000
      9 C34          7.9900     3.0060    -2.6020 cd         1 Z8Z       0.251900
     10 N28          4.5780     0.0200     0.6770 ns         1 Z8Z      -0.560900
     11 C20          4.1320    -0.7950     1.7880 c3         1 Z8Z       0.123700
     12 C21          4.3090    -0.0440     3.1160 c3         1 Z8Z      -0.052100
     13 C22          5.7320     0.3720     3.3500 ca         1 Z8Z      -0.084300
     14 C27          6.1890     1.6240     2.9470 ca         1 Z8Z      -0.118500
     15 C26          7.5190     1.9860     3.1160 ca         1 Z8Z      -0.125000
     16 C25          8.4150     1.0990     3.6980 ca         1 Z8Z      -0.125000
     17 C24          7.9690    -0.1520     4.1080 ca         1 Z8Z      -0.125000
     18 C23          6.6410    -0.5100     3.9320 ca         1 Z8Z      -0.118500
     19 C19          2.6830    -1.2300     1.5920 c3         1 Z8Z      -0.084400
     20 C18          2.4710    -2.0920     0.3570 c3         1 Z8Z      -0.081400
     21 C17          1.0240    -2.5370     0.1770 c3         1 Z8Z       0.104700
     22 C38          0.8850    -3.5440    -0.9790 c3         1 Z8Z      -0.052100
     23 C39         -0.5470    -3.9160    -1.2340 ca         1 Z8Z      -0.083300
     24 C44         -1.3180    -3.1970    -2.1450 ca         1 Z8Z      -0.121000
     25 C43         -2.6670    -3.4780    -2.3170 ca         1 Z8Z      -0.123500
     26 C42         -3.2630    -4.4980    -1.5890 ca         1 Z8Z      -0.132000
     27 C41         -2.5010    -5.2320    -0.6880 ca         1 Z8Z      -0.123500
     28 C40         -1.1570    -4.9380    -0.5110 ca         1 Z8Z      -0.121000
     29 N16          0.1580    -1.3970    -0.0470 ns         1 Z8Z      -0.557900
     30 C14         -1.0630    -1.2690     0.4980 c          1 Z8Z       0.658100
     31 O15         -1.4840    -1.9840     1.3970 o          1 Z8Z      -0.608100
     32 C13         -1.9190    -0.1460    -0.0800 c3         1 Z8Z       0.051700
     33 C45         -1.8060     1.1710     0.7170 c3         1 Z8Z      -0.069700
     34 C47         -2.2750     1.0450     2.1610 c3         1 Z8Z      -0.087600
     35 C46         -0.4040     1.7630     0.6370 c3         1 Z8Z      -0.087600
     36 N12         -3.2720    -0.6400    -0.1390 ns         1 Z8Z      -0.579900
     37 C10         -4.1050    -0.3190    -1.1590 c          1 Z8Z       0.786100
     38 O11         -3.8090     0.5310    -1.9960 o          1 Z8Z      -0.660100
     39 N08         -5.2890    -1.0020    -1.2100 n          1 Z8Z      -0.476800
     40 C09         -5.6780    -1.9430    -0.1810 c3         1 Z8Z       0.083300
     41 C07         -6.3250    -0.4720    -2.0780 c3         1 Z8Z       0.089700
     42 C06         -7.0420     0.6900    -1.4610 cc         1 Z8Z       0.309600
     43 N05         -7.8680     0.4750    -0.3890 nc         1 Z8Z      -0.652000
     44 C48         -6.9230     1.9880    -1.8390 cd         1 Z8Z      -0.165400
     45 S49         -7.8860     2.9810    -0.8250 ss         1 Z8Z      -0.195300
     46 C04         -8.3810     1.5730     0.0590 cd         1 Z8Z       0.443700
     47 C02         -9.2670     1.6630     1.2630 c3         1 Z8Z      -0.099000
     48 C03         -8.4200     1.8830     2.5190 c3         1 Z8Z      -0.088600
     49 C01        -10.3390     2.7390     1.1270 c3         1 Z8Z      -0.088600
     50 H1           8.0730     0.8020    -0.9420 h1         1 Z8Z       0.071200
     51 H2           7.2150    -0.1830    -2.1310 h1         1 Z8Z       0.071200
     52 H3           5.9640     3.3500    -5.0130 h5         1 Z8Z       0.084100
     53 H4           8.8200     3.2990    -1.9780 h4         1 Z8Z       0.051100
     54 H5           4.0750     0.8750     0.4940 hn         1 Z8Z       0.321500
     55 H6           4.7660    -1.6830     1.8040 h1         1 Z8Z       0.085700
     56 H7           3.6520     0.8320     3.1180 hc         1 Z8Z       0.054200
     57 H8           3.9660    -0.6950     3.9240 hc         1 Z8Z       0.054200
     58 H9           5.4970     2.3280     2.5000 ha         1 Z8Z       0.127000
     59 H10          7.8550     2.9640     2.7940 ha         1 Z8Z       0.130000
     60 H11          9.4510     1.3790     3.8350 ha         1 Z8Z       0.130000
     61 H12          8.6590    -0.8500     4.5660 ha         1 Z8Z       0.130000
     62 H13          6.3030    -1.4900     4.2520 ha         1 Z8Z       0.127000
     63 H14          2.3740    -1.7870     2.4810 hc         1 Z8Z       0.052700
     64 H15          2.0400    -0.3440     1.5530 hc         1 Z8Z       0.052700
     65 H16          2.8000    -1.5600    -0.5410 hc         1 Z8Z       0.052200
     66 H17          3.0960    -2.9870     0.4250 hc         1 Z8Z       0.052200
     67 H18          0.6810    -3.0160     1.0960 h1         1 Z8Z       0.085700
     68 H19          1.3280    -3.1130    -1.8820 hc         1 Z8Z       0.052700
     69 H20          1.4730    -4.4300    -0.7290 hc         1 Z8Z       0.052700
     70 H21         -0.8620    -2.4030    -2.7260 ha         1 Z8Z       0.127000
     71 H22         -3.2530    -2.9000    -3.0190 ha         1 Z8Z       0.133500
     72 H23         -4.3130    -4.7230    -1.7260 ha         1 Z8Z       0.129000
     73 H24         -2.9570    -6.0350    -0.1220 ha         1 Z8Z       0.133500
     74 H25         -0.5710    -5.5090     0.2010 ha         1 Z8Z       0.127000
     75 H26          0.3750    -0.8140    -0.8410 hn         1 Z8Z       0.308500
     76 H27         -1.5870     0.0640    -1.1000 h1         1 Z8Z       0.074700
     77 H28         -2.4830     1.8600     0.2020 hc         1 Z8Z       0.069700
     78 H29         -1.6080     0.4180     2.7550 hc         1 Z8Z       0.035867
     79 H30         -2.3050     2.0290     2.6310 hc         1 Z8Z       0.035867
     80 H31         -3.2790     0.6250     2.2230 hc         1 Z8Z       0.035867
     81 H32         -0.0570     1.8410    -0.3960 hc         1 Z8Z       0.035867
     82 H33         -0.3920     2.7680     1.0620 hc         1 Z8Z       0.035867
     83 H34          0.3250     1.1690     1.1900 hc         1 Z8Z       0.035867
     84 H35         -3.5080    -1.3600     0.5240 hn         1 Z8Z       0.339500
     85 H36         -5.8530    -1.4740     0.7910 h1         1 Z8Z       0.042700
     86 H37         -6.6040    -2.4270    -0.4800 h1         1 Z8Z       0.042700
     87 H38         -4.9320    -2.7310    -0.0660 h1         1 Z8Z       0.042700
     88 H39         -5.8950    -0.1830    -3.0340 h1         1 Z8Z       0.069700
     89 H40         -7.0350    -1.2760    -2.2750 h1         1 Z8Z       0.069700
     90 H41         -6.3360     2.3980    -2.6450 h4         1 Z8Z       0.189000
     91 H42         -9.7560     0.6890     1.3450 hc         1 Z8Z       0.074700
     92 H43         -7.6630     1.1070     2.6280 hc         1 Z8Z       0.040700
     93 H44         -7.9130     2.8490     2.4850 hc         1 Z8Z       0.040700
     94 H45         -9.0510     1.8690     3.4090 hc         1 Z8Z       0.040700
     95 H46        -10.9490     2.5960     0.2350 hc         1 Z8Z       0.040700
     96 H47        -11.0000     2.7160     1.9930 hc         1 Z8Z       0.040700
     97 H48         -9.9020     3.7400     1.0830 hc         1 Z8Z       0.040700
@<TRIPOS>BOND
     1     1     2 2   
     2     2     3 1   
     3     2    10 1   
     4     3     4 1   
     5     4     5 1   
     6     4    50 1   
     7     4    51 1   
     8     5     6 1   
     9     5     9 2   
    10     6     7 1   
    11     7     8 2   
    12     7    52 1   
    13     8     9 1   
    14     9    53 1   
    15    10    11 1   
    16    10    54 1   
    17    11    12 1   
    18    11    19 1   
    19    11    55 1   
    20    12    13 1   
    21    12    56 1   
    22    12    57 1   
    23    13    14 ar  
    24    13    18 ar  
    25    14    15 ar  
    26    14    58 1   
    27    15    16 ar  
    28    15    59 1   
    29    16    17 ar  
    30    16    60 1   
    31    17    18 ar  
    32    17    61 1   
    33    18    62 1   
    34    19    20 1   
    35    19    63 1   
    36    19    64 1   
    37    20    21 1   
    38    20    65 1   
    39    20    66 1   
    40    21    22 1   
    41    21    29 1   
    42    21    67 1   
    43    22    23 1   
    44    22    68 1   
    45    22    69 1   
    46    23    24 ar  
    47    23    28 ar  
    48    24    25 ar  
    49    24    70 1   
    50    25    26 ar  
    51    25    71 1   
    52    26    27 ar  
    53    26    72 1   
    54    27    28 ar  
    55    27    73 1   
    56    28    74 1   
    57    29    30 1   
    58    29    75 1   
    59    30    31 2   
    60    30    32 1   
    61    32    33 1   
    62    32    36 1   
    63    32    76 1   
    64    33    34 1   
    65    33    35 1   
    66    33    77 1   
    67    34    78 1   
    68    34    79 1   
    69    34    80 1   
    70    35    81 1   
    71    35    82 1   
    72    35    83 1   
    73    36    37 1   
    74    36    84 1   
    75    37    38 2   
    76    37    39 1   
    77    39    40 1   
    78    39    41 1   
    79    40    85 1   
    80    40    86 1   
    81    40    87 1   
    82    41    42 1   
    83    41    88 1   
    84    41    89 1   
    85    42    43 1   
    86    42    44 2   
    87    43    46 2   
    88    44    45 1   
    89    44    90 1   
    90    45    46 1   
    91    46    47 1   
    92    47    48 1   
    93    47    49 1   
    94    47    91 1   
    95    48    92 1   
    96    48    93 1   
    97    48    94 1   
    98    49    95 1   
    99    49    96 1   
   100    49    97 1   
@<TRIPOS>SUBSTRUCTURE
     1 Z8Z         1 TEMP              0 ****  ****    0 ROOT
