@<TRIPOS>MOLECULE
Z8Z
   97   100     1     0     0
SMALL
No Charge or Current Charge


@<TRIPOS>ATOM
      1 O30          6.4000    -0.8790     0.6660 o          1 Z8Z      -0.537000
      2 C29          5.5730    -0.0530     0.3120 c          1 Z8Z       0.643100
      3 O31          5.7770     0.9390    -0.5970 os         1 Z8Z      -0.461100
      4 C32          7.0860     1.0460    -1.1870 c3         1 Z8Z       0.166300
      5 C33          7.0870     2.2110    -2.1370 cc         1 Z8Z       0.081300
      6 O37          7.4880     2.0330    -3.4240 os         1 Z8Z      -0.248000
      7 C36          7.3650     3.2760    -3.9770 cc         1 Z8Z       0.438900
      8 N35          6.9230     4.2060    -3.1350 nd         1 Z8Z      -0.677000
      9 C34          6.7420     3.5220    -1.9480 cd         1 Z8Z       0.251900
     10 N28          4.2840     0.0200     0.7560 ns         1 Z8Z      -0.493900
     11 C20          3.7000    -0.8420     1.7870 c3         1 Z8Z       0.123700
     12 C21          3.4820    -0.0480     3.0970 c3         1 Z8Z      -0.052100
     13 C22          4.7600     0.6060     3.6140 ca         1 Z8Z      -0.084300
     14 C27          4.9770     1.9870     3.4390 ca         1 Z8Z      -0.100500
     15 C26          6.1620     2.5840     3.9030 ca         1 Z8Z      -0.107000
     16 C25          7.1380     1.8030     4.5450 ca         1 Z8Z      -0.107000
     17 C24          6.9270     0.4250     4.7230 ca         1 Z8Z      -0.107000
     18 C23          5.7420    -0.1710     4.2590 ca         1 Z8Z      -0.100500
     19 C19          2.3990    -1.5060     1.2790 c3         1 Z8Z      -0.084400
     20 C18          2.5940    -2.3980     0.0250 c3         1 Z8Z      -0.081400
     21 C17          1.3010    -3.1050    -0.4470 c3         1 Z8Z       0.104700
     22 C38          1.5540    -4.0820    -1.6190 c3         1 Z8Z      -0.052100
     23 C39          0.2770    -4.7600    -2.1060 ca         1 Z8Z      -0.083300
     24 C44         -0.2940    -4.4040    -3.3440 ca         1 Z8Z      -0.103000
     25 C43         -1.4810    -5.0180    -3.7800 ca         1 Z8Z      -0.105500
     26 C42         -2.1040    -5.9920    -2.9820 ca         1 Z8Z      -0.114000
     27 C41         -1.5400    -6.3520    -1.7470 ca         1 Z8Z      -0.105500
     28 C40         -0.3530    -5.7380    -1.3100 ca         1 Z8Z      -0.103000
     29 N16          0.2740    -2.1270    -0.8190 ns         1 Z8Z      -0.490900
     30 C14         -0.8750    -1.8670    -0.1010 c          1 Z8Z       0.591100
     31 O15         -1.1290    -2.4450     0.9500 o          1 Z8Z      -0.608100
     32 C13         -1.8330    -0.8140    -0.7380 c3         1 Z8Z       0.051700
     33 C45         -1.3680     0.6640    -0.5260 c3         1 Z8Z      -0.069700
     34 C47         -1.2390     1.0540     0.9680 c3         1 Z8Z      -0.087600
     35 C46         -0.0800     1.0180    -1.3090 c3         1 Z8Z      -0.087600
     36 N12         -3.1990    -1.0130    -0.2060 ns         1 Z8Z      -0.512900
     37 C10         -4.3580    -0.5960    -0.8100 c          1 Z8Z       0.652100
     38 O11         -4.3550    -0.0400    -1.8970 o          1 Z8Z      -0.660100
     39 N08         -5.5440    -0.8540    -0.0970 n          1 Z8Z      -0.409800
     40 C09         -5.5380    -1.4960     1.2390 c3         1 Z8Z       0.083300
     41 C07         -6.8560    -0.4090    -0.6320 c3         1 Z8Z       0.089700
     42 C06         -7.2180     0.9820    -0.1630 cc         1 Z8Z       0.244300
     43 N05         -8.1570     1.1340     0.8290 nc         1 Z8Z      -0.652000
     44 C48         -6.6700     2.1460    -0.6430 cd         1 Z8Z      -0.227000
     45 S49         -7.3400     3.5470     0.1690 ss         1 Z8Z      -0.050400
     46 C04         -8.3210     2.4210     1.1030 cd         1 Z8Z       0.443700
     47 C02         -9.2960     2.8850     2.1660 c3         1 Z8Z      -0.099000
     48 C03         -8.5750     3.5960     3.3350 c3         1 Z8Z      -0.088600
     49 C01        -10.4190     3.7670     1.5700 c3         1 Z8Z      -0.088600
     50 H1           7.8500     1.2130    -0.4160 h1         1 Z8Z       0.071200
     51 H2           7.3450     0.1290    -1.7330 h1         1 Z8Z       0.071200
     52 H3           7.6290     3.4030    -5.0200 h5         1 Z8Z       0.084100
     53 H4           6.3830     4.0010    -1.0460 h4         1 Z8Z       0.051100
     54 H5           3.7260     0.7650     0.3630 hn         1 Z8Z       0.321500
     55 H6           4.4130    -1.6480     2.0100 h1         1 Z8Z       0.085700
     56 H7           2.7080     0.7120     2.9320 hc         1 Z8Z       0.054200
     57 H8           3.0810    -0.7250     3.8620 hc         1 Z8Z       0.054200
     58 H9           4.2300     2.5990     2.9380 ha         1 Z8Z       0.109000
     59 H10          6.3250     3.6500     3.7630 ha         1 Z8Z       0.112000
     60 H11          8.0550     2.2640     4.9040 ha         1 Z8Z       0.112000
     61 H12          7.6820    -0.1810     5.2190 ha         1 Z8Z       0.112000
     62 H13          5.5880    -1.2390     4.3970 ha         1 Z8Z       0.109000
     63 H14          1.9770    -2.1200     2.0840 hc         1 Z8Z       0.052700
     64 H15          1.6650    -0.7220     1.0640 hc         1 Z8Z       0.052700
     65 H16          2.9880    -1.7920    -0.8010 hc         1 Z8Z       0.052200
     66 H17          3.3530    -3.1580     0.2490 hc         1 Z8Z       0.052200
     67 H18          0.9270    -3.7050     0.3950 h1         1 Z8Z       0.085700
     68 H19          2.0340    -3.5390    -2.4420 hc         1 Z8Z       0.052700
     69 H20          2.2750    -4.8440    -1.2980 hc         1 Z8Z       0.052700
     70 H21          0.1780    -3.6480    -3.9670 ha         1 Z8Z       0.109000
     71 H22         -1.9180    -4.7380    -4.7360 ha         1 Z8Z       0.115500
     72 H23         -3.0230    -6.4660    -3.3200 ha         1 Z8Z       0.111000
     73 H24         -2.0210    -7.1060    -1.1280 ha         1 Z8Z       0.115500
     74 H25          0.0760    -6.0200    -0.3520 ha         1 Z8Z       0.109000
     75 H26          0.3940    -1.6170    -1.6850 hn         1 Z8Z       0.308500
     76 H27         -1.8600    -1.0230    -1.8160 h1         1 Z8Z       0.074700
     77 H28         -2.1530     1.3040    -0.9480 hc         1 Z8Z       0.069700
     78 H29         -0.4580     0.4680     1.4660 hc         1 Z8Z       0.035867
     79 H30         -0.9800     2.1150     1.0670 hc         1 Z8Z       0.035867
     80 H31         -2.1830     0.8910     1.5010 hc         1 Z8Z       0.035867
     81 H32         -0.1690     0.7210    -2.3610 hc         1 Z8Z       0.035867
     82 H33          0.0980     2.1000    -1.2800 hc         1 Z8Z       0.035867
     83 H34          0.8000     0.5260    -0.8800 hc         1 Z8Z       0.035867
     84 H35         -3.2940    -1.4920     0.6800 hn         1 Z8Z       0.339500
     85 H36         -4.9300    -0.9030     1.9350 h1         1 Z8Z       0.042700
     86 H37         -6.5580    -1.5610     1.6380 h1         1 Z8Z       0.042700
     87 H38         -5.1250    -2.5100     1.1640 h1         1 Z8Z       0.042700
     88 H39         -6.8380    -0.4230    -1.7290 h1         1 Z8Z       0.069700
     89 H40         -7.6360    -1.1140    -0.3170 h1         1 Z8Z       0.069700
     90 H41         -5.9160     2.2550    -1.4130 h4         1 Z8Z       0.171000
     91 H42         -9.7830     1.9980     2.5890 hc         1 Z8Z       0.074700
     92 H43         -7.8050     2.9430     3.7660 hc         1 Z8Z       0.040700
     93 H44         -8.0900     4.5200     2.9970 hc         1 Z8Z       0.040700
     94 H45         -9.2850     3.8530     4.1300 hc         1 Z8Z       0.040700
     95 H46        -10.9400     3.2340     0.7650 hc         1 Z8Z       0.040700
     96 H47        -11.1570     4.0250     2.3390 hc         1 Z8Z       0.040700
     97 H48        -10.0130     4.6990     1.1590 hc         1 Z8Z       0.040700
@<TRIPOS>BOND
     1     1     2 2   
     2     2     3 1   
     3     2    10 1   
     4     3     4 1   
     5     4     5 1   
     6     4    50 1   
     7     4    51 1   
     8     5     6 1   
     9     5     9 2   
    10     6     7 1   
    11     7     8 2   
    12     7    52 1   
    13     8     9 1   
    14     9    53 1   
    15    10    11 1   
    16    10    54 1   
    17    11    12 1   
    18    11    19 1   
    19    11    55 1   
    20    12    13 1   
    21    12    56 1   
    22    12    57 1   
    23    13    14 ar  
    24    13    18 ar  
    25    14    15 ar  
    26    14    58 1   
    27    15    16 ar  
    28    15    59 1   
    29    16    17 ar  
    30    16    60 1   
    31    17    18 ar  
    32    17    61 1   
    33    18    62 1   
    34    19    20 1   
    35    19    63 1   
    36    19    64 1   
    37    20    21 1   
    38    20    65 1   
    39    20    66 1   
    40    21    22 1   
    41    21    29 1   
    42    21    67 1   
    43    22    23 1   
    44    22    68 1   
    45    22    69 1   
    46    23    24 ar  
    47    23    28 ar  
    48    24    25 ar  
    49    24    70 1   
    50    25    26 ar  
    51    25    71 1   
    52    26    27 ar  
    53    26    72 1   
    54    27    28 ar  
    55    27    73 1   
    56    28    74 1   
    57    29    30 1   
    58    29    75 1   
    59    30    31 2   
    60    30    32 1   
    61    32    33 1   
    62    32    36 1   
    63    32    76 1   
    64    33    34 1   
    65    33    35 1   
    66    33    77 1   
    67    34    78 1   
    68    34    79 1   
    69    34    80 1   
    70    35    81 1   
    71    35    82 1   
    72    35    83 1   
    73    36    37 1   
    74    36    84 1   
    75    37    38 2   
    76    37    39 1   
    77    39    40 1   
    78    39    41 1   
    79    40    85 1   
    80    40    86 1   
    81    40    87 1   
    82    41    42 1   
    83    41    88 1   
    84    41    89 1   
    85    42    43 1   
    86    42    44 2   
    87    43    46 2   
    88    44    45 1   
    89    44    90 1   
    90    45    46 1   
    91    46    47 1   
    92    47    48 1   
    93    47    49 1   
    94    47    91 1   
    95    48    92 1   
    96    48    93 1   
    97    48    94 1   
    98    49    95 1   
    99    49    96 1   
   100    49    97 1   
@<TRIPOS>SUBSTRUCTURE
     1 Z8Z         1 TEMP              0 ****  ****    0 ROOT
