@<TRIPOS>MOLECULE
Z90
   79    82     1     0     0
SMALL
abcg2


@<TRIPOS>ATOM
      1 OAA         -3.8000    -4.5260    -0.5750 o          1 Z90      -0.756000
      2 OAB          9.0230    -2.2600     0.6830 o          1 Z90      -0.731000
      3 OAC         -3.7820    -2.4950    -1.4900 o          1 Z90      -0.756000
      4 OAD          9.5560    -1.6200    -1.3830 o          1 Z90      -0.731000
      5 CAE         -9.4470    -2.6900    -0.3980 ca         1 Z90      -0.131000
      6 CAF         -9.7170    -1.3890     0.0020 ca         1 Z90      -0.122500
      7 CAG         -8.1580    -3.0300    -0.7920 ca         1 Z90      -0.122500
      8 CAH          3.9300     4.8330     1.8580 ca         1 Z90      -0.154000
      9 CAI          2.8090     5.6260     1.6920 ca         1 Z90      -0.090000
     10 CAJ         -8.7030    -0.4380     0.0080 ca         1 Z90      -0.102000
     11 CAK         -7.1470    -2.0790    -0.7860 ca         1 Z90      -0.102000
     12 CAL          3.8060     3.4540     1.7330 ca         1 Z90      -0.074000
     13 CAM          1.5730     5.0520     1.4130 ca         1 Z90      -0.212000
     14 CAN         -4.0740     1.9180     1.7710 ca         1 Z90      -0.112500
     15 CAO         -3.1750     0.9660    -0.2280 ca         1 Z90      -0.112500
     16 CAP         -3.0250     2.8290     1.8060 ca         1 Z90      -0.095000
     17 CAQ         -2.1370     1.8820    -0.2030 ca         1 Z90      -0.095000
     18 CAR          4.9580    -1.5740    -0.0650 ca         1 Z90      -0.132500
     19 CAS          5.5350    -0.8730    -2.2760 ca         1 Z90      -0.132500
     20 CAT          6.2980    -1.8090     0.2050 ca         1 Z90      -0.096500
     21 CAU          6.8750    -1.1140    -2.0050 ca         1 Z90      -0.096500
     22 CAV         -1.1240    -1.9810    -0.7740 c3         1 Z90      -0.061400
     23 CAW          0.3770    -1.9300    -0.5180 c3         1 Z90      -0.079400
     24 CAX         -1.7360    -3.3600    -0.6020 c3         1 Z90      -0.202400
     25 CAY         -6.3060     0.2550    -0.3630 c3         1 Z90      -0.021100
     26 CBA          2.5050     1.3640     1.2410 c3         1 Z90      -0.029100
     27 CBB          0.9070    -0.5190    -0.7260 c3         1 Z90       0.163800
     28 CBC          2.6790     1.0160    -0.2400 c3         1 Z90       0.176800
     29 CBD         -0.8950     3.7840     0.8860 c3         1 Z90       0.217900
     30 CBE          3.1010    -0.8930    -1.6400 c3         1 Z90       0.223100
     31 OBF          0.2950     3.0270     1.0550 os         1 Z90      -0.333100
     32 CBG         -3.2430    -3.4620    -0.9120 c          1 Z90       0.718000
     33 CBH          8.7490    -1.8450    -0.4600 c          1 Z90       0.713600
     34 CBI         -7.4100    -0.7670    -0.3880 ca         1 Z90      -0.080300
     35 CBJ         -4.1570     0.9640     0.7640 ca         1 Z90      -0.051300
     36 CBK         -2.0430     2.8210     0.8230 ca         1 Z90      -0.113300
     37 CBL          4.5570    -1.1050    -1.3140 ca         1 Z90      -0.115300
     38 CBM          7.2790    -1.5860    -0.7590 ca         1 Z90      -0.137600
     39 CBN          2.5890     2.8490     1.4520 ca         1 Z90      -0.095300
     40 CBO          1.4580     3.6690     1.3000 ca         1 Z90       0.146100
     41 NBP          2.3390    -0.3700    -0.5240 n3         1 Z90      -0.720600
     42 HAG         -7.9370    -4.0440    -1.1040 ha         1 Z90       0.104000
     43 HAH          4.8920     5.2770     2.0810 ha         1 Z90       0.107000
     44 HAI          2.8810     6.7030     1.7770 ha         1 Z90       0.095000
     45 HAJ         -8.9240     0.5770     0.3200 ha         1 Z90       0.141500
     46 HAK         -6.1410    -2.3550    -1.0890 ha         1 Z90       0.141500
     47 HAL          4.6790     2.8230     1.8560 ha         1 Z90       0.125000
     48 HAM          0.7160     5.6990     1.2890 ha         1 Z90       0.105000
     49 HAN         -4.8240     1.9410     2.5530 ha         1 Z90       0.131000
     50 HAO         -3.2140     0.2120    -1.0070 ha         1 Z90       0.131000
     51 HAP         -2.9710     3.5490     2.6140 ha         1 Z90       0.106500
     52 HAQ         -1.3840     1.8510    -0.9820 ha         1 Z90       0.106500
     53 HAR          4.2100    -1.7420     0.7000 ha         1 Z90       0.094000
     54 HAS          5.2440    -0.4950    -3.2510 ha         1 Z90       0.094000
     55 HAT          6.5910    -2.1720     1.1820 ha         1 Z90       0.120000
     56 HAU          7.6180    -0.9260    -2.7680 ha         1 Z90       0.120000
     57 HAV         -1.6250    -1.2760    -0.1050 hc         1 Z90       0.032700
     58 HAVA        -1.3270    -1.6170    -1.7840 hc         1 Z90       0.032700
     59 HAW          0.6020    -2.2530     0.5030 hc         1 Z90       0.037700
     60 HAWA         0.8820    -2.6390    -1.1820 hc         1 Z90       0.037700
     61 HAX         -1.2150    -4.0780    -1.2490 hc         1 Z90       0.021200
     62 HAXA        -1.5630    -3.7220     0.4170 hc         1 Z90       0.021200
     63 HAY         -6.7250     1.2510    -0.2020 hc         1 Z90       0.043200
     64 HAYA        -5.8020     0.2790    -1.3330 hc         1 Z90       0.043200
     65 HBA          1.5570     0.9710     1.6130 hc         1 Z90       0.062700
     66 HBAA         3.2950     0.8660     1.8080 hc         1 Z90       0.062700
     67 HBB          0.6140    -0.1610    -1.7290 h1         1 Z90       0.023700
     68 HBBA         0.3970     0.1420    -0.0210 h1         1 Z90       0.023700
     69 HBC          2.0840     1.7040    -0.8610 h1         1 Z90       0.032200
     70 HBCA         3.7230     1.1920    -0.5070 h1         1 Z90       0.032200
     71 HBD         -1.0400     4.4740     1.7220 h1         1 Z90       0.029200
     72 HBDA        -0.8310     4.3820    -0.0300 h1         1 Z90       0.029200
     73 HBE          3.0210    -0.2530    -2.5350 h1         1 Z90       0.027200
     74 HBEA         2.6740    -1.8570    -1.9280 h1         1 Z90       0.027200
     75 HAE        -10.2340    -3.4330    -0.4060 ha         1 Z90       0.092000
     76 CAZ         -5.2680    -0.0480     0.7270 c3         1 Z90      -0.041100
     77 HAF        -10.7170    -1.1110     0.3100 ha         1 Z90       0.104000
     78 HAZ         -5.7670    -0.0890     1.6980 hc         1 Z90       0.070700
     79 HAZA        -4.8470    -1.0370     0.5340 hc         1 Z90       0.070700
@<TRIPOS>BOND
     1     1    32 1   
     2     2    33 1   
     3     3    32 1   
     4     4    33 1   
     5     5     6 ar  
     6     5     7 ar  
     7     5    75 1   
     8     6    10 ar  
     9     6    77 1   
    10     7    11 ar  
    11     7    42 1   
    12     8     9 ar  
    13     8    12 ar  
    14     8    43 1   
    15     9    13 ar  
    16     9    44 1   
    17    10    34 ar  
    18    10    45 1   
    19    11    34 ar  
    20    11    46 1   
    21    12    39 ar  
    22    12    47 1   
    23    13    40 ar  
    24    13    48 1   
    25    14    16 ar  
    26    14    35 ar  
    27    14    49 1   
    28    15    17 ar  
    29    15    35 ar  
    30    15    50 1   
    31    16    36 ar  
    32    16    51 1   
    33    17    36 ar  
    34    17    52 1   
    35    18    20 ar  
    36    18    37 ar  
    37    18    53 1   
    38    19    21 ar  
    39    19    37 ar  
    40    19    54 1   
    41    20    38 ar  
    42    20    55 1   
    43    21    38 ar  
    44    21    56 1   
    45    22    23 1   
    46    22    24 1   
    47    22    57 1   
    48    22    58 1   
    49    23    27 1   
    50    23    59 1   
    51    23    60 1   
    52    24    32 1   
    53    24    61 1   
    54    24    62 1   
    55    25    34 1   
    56    25    63 1   
    57    25    64 1   
    58    25    76 1   
    59    26    28 1   
    60    26    39 1   
    61    26    65 1   
    62    26    66 1   
    63    27    41 1   
    64    27    67 1   
    65    27    68 1   
    66    28    41 1   
    67    28    69 1   
    68    28    70 1   
    69    29    31 1   
    70    29    36 1   
    71    29    71 1   
    72    29    72 1   
    73    30    37 1   
    74    30    41 1   
    75    30    73 1   
    76    30    74 1   
    77    31    40 1   
    78    33    38 1   
    79    35    76 1   
    80    39    40 ar  
    81    76    78 1   
    82    76    79 1   
@<TRIPOS>SUBSTRUCTURE
     1 Z90         1 TEMP              0 ****  ****    0 ROOT
