@<TRIPOS>MOLECULE
Z90
   79    82     1     0     0
SMALL
No Charge or Current Charge


@<TRIPOS>ATOM
      1 OAA         -3.6500    -3.2640     2.9820 o          1 Z90      -0.756000
      2 OAB          8.9140    -2.2350    -1.4290 o          1 Z90      -0.731000
      3 OAC         -4.1700    -3.6780     0.9350 o          1 Z90      -0.756000
      4 OAD          8.7500    -0.8480    -3.0590 o          1 Z90      -0.731000
      5 CAE         -9.0490    -2.5890    -1.9350 ca         1 Z90      -0.131000
      6 CAF         -9.1020    -1.9100    -0.7060 ca         1 Z90      -0.122500
      7 CAG         -8.0150    -2.3130    -2.8440 ca         1 Z90      -0.122500
      8 CAH          4.1630     4.9560     2.0380 ca         1 Z90      -0.154000
      9 CAI          3.0160     5.7480     1.8650 ca         1 Z90      -0.090000
     10 CAJ         -8.1210    -0.9540    -0.3870 ca         1 Z90      -0.102000
     11 CAK         -7.0330    -1.3580    -2.5260 ca         1 Z90      -0.102000
     12 CAL          4.0710     3.5560     1.9730 ca         1 Z90      -0.074000
     13 CAM          1.7720     5.1400     1.6250 ca         1 Z90      -0.212000
     14 CAN         -3.7350     1.4130     1.3550 ca         1 Z90      -0.112500
     15 CAO         -2.7730     1.1380    -0.8590 ca         1 Z90      -0.112500
     16 CAP         -2.7680     2.3880     1.6560 ca         1 Z90      -0.095000
     17 CAQ         -1.8070     2.1130    -0.5590 ca         1 Z90      -0.095000
     18 CAR          4.7450    -2.0380    -0.6590 ca         1 Z90      -0.132500
     19 CAS          4.5600    -0.4700    -2.5010 ca         1 Z90      -0.132500
     20 CAT          6.1300    -2.1340    -0.8770 ca         1 Z90      -0.096500
     21 CAU          5.9450    -0.5640    -2.7220 ca         1 Z90      -0.096500
     22 CAV         -1.3760    -2.0770     1.0660 c3         1 Z90      -0.061400
     23 CAW          0.1160    -2.0330     0.6630 c3         1 Z90      -0.079400
     24 CAX         -1.8570    -3.5010     1.4420 c3         1 Z90      -0.202400
     25 CAY         -6.0200     0.3640    -0.9520 c3         1 Z90      -0.021100
     26 CBA          2.7300     1.4140     1.6600 c3         1 Z90      -0.029100
     27 CBB          0.6200    -0.6000     0.3720 c3         1 Z90       0.163800
     28 CBC          2.5750     0.9070     0.2040 c3         1 Z90       0.176800
     29 CBD         -0.7400     3.7910     1.0200 c3         1 Z90       0.217900
     30 CBE          2.4430    -1.1060    -1.2270 c3         1 Z90       0.223100
     31 OBF          0.4750     3.0920     1.3180 os         1 Z90      -0.333100
     32 CBG         -3.3500    -3.4860     1.8190 c          1 Z90       0.718000
     33 CBH          8.2540    -1.5010    -2.1520 c          1 Z90       0.713600
     34 CBI         -7.0820    -0.6720    -1.2960 ca         1 Z90      -0.080300
     35 CBJ         -3.7440     0.7840     0.0960 ca         1 Z90      -0.051300
     36 CBK         -1.8010     2.7470     0.6980 ca         1 Z90      -0.113300
     37 CBL          3.9500    -1.2050    -1.4670 ca         1 Z90      -0.115300
     38 CBM          6.7540    -1.3980    -1.9130 ca         1 Z90      -0.137600
     39 CBN          2.8280     2.9370     1.7340 ca         1 Z90      -0.095300
     40 CBO          1.6740     3.7330     1.5580 ca         1 Z90       0.146100
     41 NBP          2.0790    -0.4930     0.0800 n3         1 Z90      -0.720600
     42 HAG         -7.9720    -2.8400    -3.7950 ha         1 Z90       0.104000
     43 HAH          5.1250     5.4290     2.2230 ha         1 Z90       0.107000
     44 HAI          3.0920     6.8320     1.9160 ha         1 Z90       0.095000
     45 HAJ         -8.1690    -0.4330     0.5670 ha         1 Z90       0.141500
     46 HAK         -6.2340    -1.1510    -3.2350 ha         1 Z90       0.141500
     47 HAL          4.9670     2.9530     2.1060 ha         1 Z90       0.125000
     48 HAM          0.9000     5.7730     1.4950 ha         1 Z90       0.105000
     49 HAN         -4.4810     1.1490     2.1030 ha         1 Z90       0.131000
     50 HAO         -2.7680     0.6590    -1.8360 ha         1 Z90       0.131000
     51 HAP         -2.7710     2.8630     2.6340 ha         1 Z90       0.106500
     52 HAQ         -1.0580     2.3750    -1.3040 ha         1 Z90       0.106500
     53 HAR          4.2860    -2.6100     0.1440 ha         1 Z90       0.094000
     54 HAS          3.9600     0.1790    -3.1350 ha         1 Z90       0.094000
     55 HAT          6.7200    -2.7850    -0.2350 ha         1 Z90       0.120000
     56 HAU          6.3900     0.0160    -3.5280 ha         1 Z90       0.120000
     57 HAV         -1.5420    -1.4040     1.9160 hc         1 Z90       0.032700
     58 HAVA        -1.9820    -1.6970     0.2350 hc         1 Z90       0.032700
     59 HAW          0.7210    -2.4620     1.4710 hc         1 Z90       0.037700
     60 HAWA         0.2550    -2.6700    -0.2180 hc         1 Z90       0.037700
     61 HAX         -1.6940    -4.1200     0.5510 hc         1 Z90       0.021200
     62 HAXA        -1.2500    -3.7990     2.3050 hc         1 Z90       0.021200
     63 HAY         -6.4480     1.1450    -0.3120 hc         1 Z90       0.043200
     64 HAYA        -5.6790     0.8710    -1.8630 hc         1 Z90       0.043200
     65 HBA          1.8900     1.0790     2.2770 hc         1 Z90       0.062700
     66 HBAA         3.6180     0.9430     2.0980 hc         1 Z90       0.062700
     67 HBB          0.0440    -0.1890    -0.4690 h1         1 Z90       0.023700
     68 HBBA         0.3620     0.0090     1.2470 h1         1 Z90       0.023700
     69 HBC          1.8950     1.5760    -0.3410 h1         1 Z90       0.032200
     70 HBCA         3.5590     1.0190    -0.2700 h1         1 Z90       0.032200
     71 HBD         -1.0580     4.4020     1.8740 h1         1 Z90       0.029200
     72 HBDA        -0.6050     4.4490     0.1520 h1         1 Z90       0.029200
     73 HBE          1.9830    -0.5340    -2.0450 h1         1 Z90       0.027200
     74 HBEA         2.0460    -2.1260    -1.2950 h1         1 Z90       0.027200
     75 HAE         -9.8080    -3.3290    -2.1810 ha         1 Z90       0.092000
     76 CAZ         -4.8030    -0.2590    -0.2370 c3         1 Z90      -0.041100
     77 HAF         -9.9020    -2.1230    -0.0010 ha         1 Z90       0.104000
     78 HAZ         -5.1410    -0.7630     0.6760 hc         1 Z90       0.070700
     79 HAZA        -4.3730    -1.0410    -0.8750 hc         1 Z90       0.070700
@<TRIPOS>BOND
     1     1    32 1   
     2     2    33 1   
     3     3    32 1   
     4     4    33 1   
     5     5     6 ar  
     6     5     7 ar  
     7     5    75 1   
     8     6    10 ar  
     9     6    77 1   
    10     7    11 ar  
    11     7    42 1   
    12     8     9 ar  
    13     8    12 ar  
    14     8    43 1   
    15     9    13 ar  
    16     9    44 1   
    17    10    34 ar  
    18    10    45 1   
    19    11    34 ar  
    20    11    46 1   
    21    12    39 ar  
    22    12    47 1   
    23    13    40 ar  
    24    13    48 1   
    25    14    16 ar  
    26    14    35 ar  
    27    14    49 1   
    28    15    17 ar  
    29    15    35 ar  
    30    15    50 1   
    31    16    36 ar  
    32    16    51 1   
    33    17    36 ar  
    34    17    52 1   
    35    18    20 ar  
    36    18    37 ar  
    37    18    53 1   
    38    19    21 ar  
    39    19    37 ar  
    40    19    54 1   
    41    20    38 ar  
    42    20    55 1   
    43    21    38 ar  
    44    21    56 1   
    45    22    23 1   
    46    22    24 1   
    47    22    57 1   
    48    22    58 1   
    49    23    27 1   
    50    23    59 1   
    51    23    60 1   
    52    24    32 1   
    53    24    61 1   
    54    24    62 1   
    55    25    34 1   
    56    25    63 1   
    57    25    64 1   
    58    25    76 1   
    59    26    28 1   
    60    26    39 1   
    61    26    65 1   
    62    26    66 1   
    63    27    41 1   
    64    27    67 1   
    65    27    68 1   
    66    28    41 1   
    67    28    69 1   
    68    28    70 1   
    69    29    31 1   
    70    29    36 1   
    71    29    71 1   
    72    29    72 1   
    73    30    37 1   
    74    30    41 1   
    75    30    73 1   
    76    30    74 1   
    77    31    40 1   
    78    33    38 1   
    79    35    76 1   
    80    39    40 ar  
    81    76    78 1   
    82    76    79 1   
@<TRIPOS>SUBSTRUCTURE
     1 Z90         1 TEMP              0 ****  ****    0 ROOT
