@<TRIPOS>MOLECULE
Z93
   51    55     1     0     0
SMALL
No Charge or Current Charge


@<TRIPOS>ATOM
      1 N1          -0.7390     2.3040     0.5190 ns         1 Z93      -0.480500
      2 C2          -0.1520     1.2220     1.0730 c          1 Z93       0.557000
      3 C3           0.3090     0.3810    -0.1750 c5         1 Z93       0.067700
      4 N4          -0.1550     1.2700    -1.2760 ns         1 Z93      -0.546900
      5 C5          -0.7660     2.3930    -0.8120 c          1 Z93       0.610000
      6 O6          -1.2380     3.2930    -1.4760 o          1 Z93      -0.501000
      7 O7          -0.0440     1.0120     2.2710 o          1 Z93      -0.453000
      8 C8           1.8370     0.1800    -0.1490 ca         1 Z93      -0.138300
      9 C9           2.6810     0.7180    -1.1480 ca         1 Z93      -0.085000
     10 C10          4.0720     0.5200    -1.1010 ca         1 Z93      -0.095000
     11 C11          4.6760    -0.2200    -0.0580 cp         1 Z93       0.016000
     12 C12          3.8270    -0.7530     0.9390 ca         1 Z93      -0.095000
     13 C13          2.4370    -0.5570     0.8960 ca         1 Z93      -0.085000
     14 C14          6.1590    -0.4290    -0.0100 cp         1 Z93      -0.119000
     15 C15          6.7270    -1.6120     0.5240 ca         1 Z93      -0.056000
     16 C16          8.1230    -1.7520     0.5440 ca         1 Z93      -0.160000
     17 C17          8.9250    -0.7170     0.0370 ca         1 Z93       0.355900
     18 N18          8.4100     0.4230    -0.4780 nb         1 Z93      -0.656000
     19 C19          7.0620     0.5540    -0.4970 ca         1 Z93       0.357900
     20 N20         -1.9230    -0.8850    -0.2840 n          1 Z93      -0.239400
     21 C21         -2.6480    -0.6800    -1.4590 cc         1 Z93       0.441100
     22 C22         -2.7630    -1.0290     0.8310 c          1 Z93       0.558600
     23 C23         -0.4450    -0.9820    -0.1980 c3         1 Z93       0.076000
     24 C24         -4.1430    -0.8740     0.2930 ca         1 Z93      -0.091600
     25 C25         -4.0540    -0.6670    -1.0750 ca         1 Z93      -0.330900
     26 C26         -5.1960    -0.4850    -1.8670 ca         1 Z93       0.089000
     27 C27         -6.4520    -0.5200    -1.2250 ca         1 Z93      -0.229000
     28 C28         -6.5490    -0.7330     0.1780 ca         1 Z93       0.254100
     29 C29         -5.3820    -0.9120     0.9470 ca         1 Z93      -0.061000
     30 O30         -2.4330    -1.2340     1.9880 o          1 Z93      -0.329000
     31 O31         -7.7620    -0.7730     0.8370 os         1 Z93      -0.295100
     32 C32         -9.0170    -0.6020     0.1540 c3         1 Z93       0.135900
     33 HN1         -1.1300     3.0350     1.0910 hn         1 Z93       0.373500
     34 HN4         -0.0120     1.1500    -2.2730 hn         1 Z93       0.352500
     35 H9           2.2740     1.2930    -1.9750 ha         1 Z93       0.118500
     36 H10          4.6830     0.9390    -1.8960 ha         1 Z93       0.132500
     37 H12          4.2490    -1.3140     1.7690 ha         1 Z93       0.132500
     38 H13          1.8280    -0.9780     1.6930 ha         1 Z93       0.118500
     39 H15          6.0980    -2.4150     0.9020 ha         1 Z93       0.119000
     40 H16          8.5860    -2.6500     0.9430 ha         1 Z93       0.133000
     41 H17         10.0110    -0.8030     0.0410 h4         1 Z93       0.031100
     42 H19          6.6890     1.4910    -0.9080 h4         1 Z93       0.021100
     43 H21         -2.1030    -0.5750    -2.3860 h4         1 Z93       0.075800
     44 H23         -0.0850    -1.5580    -1.0600 h1         1 Z93       0.109200
     45 H23A        -0.1780    -1.5590     0.6970 h1         1 Z93       0.109200
     46 H26         -5.1200    -0.3220    -2.9420 ha         1 Z93       0.151000
     47 H27         -7.3410    -0.3790    -1.8340 ha         1 Z93       0.156000
     48 H29         -5.4480    -1.0760     2.0200 ha         1 Z93       0.178000
     49 H32         -9.8500    -0.6690     0.8650 h1         1 Z93       0.072033
     50 H32A        -9.0680     0.3810    -0.3330 h1         1 Z93       0.072033
     51 H32B        -9.1590    -1.3800    -0.6070 h1         1 Z93       0.072033
@<TRIPOS>BOND
     1     1     2 1   
     2     1     5 1   
     3     1    33 1   
     4     2     3 1   
     5     2     7 2   
     6     3     4 1   
     7     3     8 1   
     8     3    23 1   
     9     4     5 1   
    10     4    34 1   
    11     5     6 2   
    12     8     9 ar  
    13     8    13 ar  
    14     9    10 ar  
    15     9    35 1   
    16    10    11 ar  
    17    10    36 1   
    18    11    12 ar  
    19    11    14 1   
    20    12    13 ar  
    21    12    37 1   
    22    13    38 1   
    23    14    15 ar  
    24    14    19 ar  
    25    15    16 ar  
    26    15    39 1   
    27    16    17 ar  
    28    16    40 1   
    29    17    18 ar  
    30    17    41 1   
    31    18    19 ar  
    32    19    42 1   
    33    20    21 2   
    34    20    22 1   
    35    20    23 1   
    36    21    25 1   
    37    21    43 1   
    38    22    24 1   
    39    22    30 2   
    40    23    44 1   
    41    23    45 1   
    42    24    25 ar  
    43    24    29 ar  
    44    25    26 ar  
    45    26    27 ar  
    46    26    46 1   
    47    27    28 ar  
    48    27    47 1   
    49    28    29 ar  
    50    28    31 1   
    51    29    48 1   
    52    31    32 1   
    53    32    49 1   
    54    32    50 1   
    55    32    51 1   
@<TRIPOS>SUBSTRUCTURE
     1 Z93         1 TEMP              0 ****  ****    0 ROOT
