@<TRIPOS>MOLECULE
Z93
   51    55     1     0     0
SMALL
bcc


@<TRIPOS>ATOM
      1 N1          -0.8440     2.1420     0.4250 ns         1 Z93      -0.614500
      2 C2          -0.2140     1.0770     0.9820 c          1 Z93       0.699500
      3 C3           0.2550     0.1960    -0.1910 c5         1 Z93       0.067700
      4 N4          -0.2440     0.9390    -1.3140 ns         1 Z93      -0.613900
      5 C5          -0.8320     2.1140    -0.9660 c          1 Z93       0.819500
      6 O6          -1.2770     2.9660    -1.6930 o          1 Z93      -0.576500
      7 O7          -0.0490     0.8430     2.1500 o          1 Z93      -0.528500
      8 C8           1.7660     0.0610    -0.1490 ca         1 Z93      -0.138300
      9 C9           2.5730     0.7550    -1.0430 ca         1 Z93      -0.103000
     10 C10          3.9530     0.6310    -0.9920 ca         1 Z93      -0.113000
     11 C11          4.5660    -0.1830    -0.0430 cp         1 Z93       0.016000
     12 C12          3.7520    -0.8680     0.8590 ca         1 Z93      -0.113000
     13 C13          2.3740    -0.7470     0.8100 ca         1 Z93      -0.103000
     14 C14          6.0310    -0.3210     0.0080 cp         1 Z93      -0.184300
     15 C15          6.6460    -1.5370     0.2990 ca         1 Z93      -0.074000
     16 C16          8.0280    -1.6080     0.3320 ca         1 Z93      -0.243300
     17 C17          8.7580    -0.4580     0.0680 ca         1 Z93       0.421200
     18 N18          8.1900     0.7110    -0.2060 nb         1 Z93      -0.656000
     19 C19          6.8670     0.7700    -0.2320 ca         1 Z93       0.423200
     20 N20         -1.8530    -1.0890    -0.2000 n          1 Z93      -0.306400
     21 C21         -2.5570    -0.9070    -1.2980 cc         1 Z93       0.441100
     22 C22         -2.7320    -1.1080     0.9500 c          1 Z93       0.701100
     23 C23         -0.4120    -1.1960    -0.1270 c3         1 Z93       0.076000
     24 C24         -4.0790    -0.8760     0.3840 ca         1 Z93      -0.091600
     25 C25         -3.9310    -0.7610    -1.0070 ca         1 Z93      -0.330900
     26 C26         -5.0330    -0.5440    -1.8200 ca         1 Z93       0.071000
     27 C27         -6.2780    -0.4390    -1.2210 ca         1 Z93      -0.247000
     28 C28         -6.4160    -0.5550     0.1710 ca         1 Z93       0.254100
     29 C29         -5.2840    -0.7840     1.0010 ca         1 Z93      -0.079000
     30 O30         -2.3610    -1.2880     2.0640 o          1 Z93      -0.404500
     31 O31         -7.5610    -0.4650     0.8100 os         1 Z93      -0.271900
     32 C32         -8.7660    -0.2270     0.0860 c3         1 Z93       0.112700
     33 HN1         -1.2410     2.9080     0.9520 hn         1 Z93       0.373500
     34 HN4          0.0210     0.7490    -2.2690 hn         1 Z93       0.352500
     35 H9           2.1400     1.3970    -1.7970 ha         1 Z93       0.136500
     36 H10          4.5510     1.1630    -1.7220 ha         1 Z93       0.150500
     37 H12          4.1950    -1.4900     1.6260 ha         1 Z93       0.150500
     38 H13          1.7870    -1.2850     1.5420 ha         1 Z93       0.136500
     39 H15          6.0520    -2.4240     0.4810 ha         1 Z93       0.137000
     40 H16          8.5330    -2.5380     0.5490 ha         1 Z93       0.151000
     41 H17          9.8410    -0.4820     0.0800 h4         1 Z93       0.031100
     42 H19          6.4370     1.7460    -0.4380 h4         1 Z93       0.021100
     43 H21         -2.0960    -0.9080    -2.2760 h4         1 Z93       0.075800
     44 H23         -0.0630    -1.8000    -0.9640 h1         1 Z93       0.109200
     45 H23A        -0.1560    -1.7160     0.7910 h1         1 Z93       0.109200
     46 H26         -4.9350    -0.4570    -2.8930 ha         1 Z93       0.169000
     47 H27         -7.1410    -0.2660    -1.8470 ha         1 Z93       0.174000
     48 H29         -5.4030    -0.8760     2.0730 ha         1 Z93       0.196000
     49 H32         -9.5580    -0.1950     0.8270 h1         1 Z93       0.072033
     50 H32A        -8.7250     0.7270    -0.4410 h1         1 Z93       0.072033
     51 H32B        -8.9650    -1.0320    -0.6220 h1         1 Z93       0.072033
@<TRIPOS>BOND
     1     1     2 1   
     2     1     5 1   
     3     1    33 1   
     4     2     3 1   
     5     2     7 2   
     6     3     4 1   
     7     3     8 1   
     8     3    23 1   
     9     4     5 1   
    10     4    34 1   
    11     5     6 2   
    12     8     9 ar  
    13     8    13 ar  
    14     9    10 ar  
    15     9    35 1   
    16    10    11 ar  
    17    10    36 1   
    18    11    12 ar  
    19    11    14 1   
    20    12    13 ar  
    21    12    37 1   
    22    13    38 1   
    23    14    15 ar  
    24    14    19 ar  
    25    15    16 ar  
    26    15    39 1   
    27    16    17 ar  
    28    16    40 1   
    29    17    18 ar  
    30    17    41 1   
    31    18    19 ar  
    32    19    42 1   
    33    20    21 2   
    34    20    22 1   
    35    20    23 1   
    36    21    25 1   
    37    21    43 1   
    38    22    24 1   
    39    22    30 2   
    40    23    44 1   
    41    23    45 1   
    42    24    25 ar  
    43    24    29 ar  
    44    25    26 ar  
    45    26    27 ar  
    46    26    46 1   
    47    27    28 ar  
    48    27    47 1   
    49    28    29 ar  
    50    28    31 1   
    51    29    48 1   
    52    31    32 1   
    53    32    49 1   
    54    32    50 1   
    55    32    51 1   
@<TRIPOS>SUBSTRUCTURE
     1 Z93         1 TEMP              0 ****  ****    0 ROOT
