@<TRIPOS>MOLECULE
Z94
   28    29     1     0     0
SMALL
abcg2


@<TRIPOS>ATOM
      1 C1           2.0410     0.3640    -0.7700 c5         1 Z94       0.075000
      2 C2           0.5840     0.1310    -0.4730 ca         1 Z94      -0.135300
      3 C3           2.7240     1.1200     0.3710 c          1 Z94       0.563000
      4 N4           2.8470    -0.8230    -0.8530 ns         1 Z94      -0.517900
      5 C5          -0.3660     1.0290    -0.9360 ca         1 Z94      -0.056000
      6 C6           0.1600    -0.9400     0.3060 ca         1 Z94      -0.056000
      7 N7           3.7930     0.3640     0.7330 ns         1 Z94      -0.486500
      8 O8           2.3710     2.1700     0.8470 o          1 Z94      -0.492000
      9 C9           3.9080    -0.8060    -0.0180 c          1 Z94       0.616000
     10 C10         -1.7140     0.8820    -0.6420 ca         1 Z94      -0.153500
     11 C11         -1.1800    -1.1020     0.6040 ca         1 Z94      -0.153500
     12 O12          4.7950    -1.6210     0.0890 o          1 Z94      -0.542000
     13 C13         -2.1370    -0.1960     0.1370 ca         1 Z94      -0.003000
     14 N14         -3.4620    -0.4440     0.4970 ns         1 Z94      -0.148000
     15 C15         -4.5960     0.2100     0.1290 c          1 Z94       0.609100
     16 C16         -5.8640    -0.3790     0.6930 c3         1 Z94      -0.182100
     17 O17         -4.6100     1.1820    -0.6040 o          1 Z94      -0.577100
     18 H1           2.1350     0.9760    -1.6750 h1         1 Z94       0.083700
     19 HN4          2.7770    -1.4860    -1.6080 hn         1 Z94       0.350500
     20 H5          -0.0580     1.8690    -1.5470 ha         1 Z94       0.120500
     21 H6           0.8730    -1.6640     0.6810 ha         1 Z94       0.120500
     22 HN7          4.4410     0.6040     1.4700 hn         1 Z94       0.356500
     23 H10         -2.4170     1.6020    -1.0260 ha         1 Z94       0.132500
     24 H11         -1.4900    -1.9480     1.2060 ha         1 Z94       0.132500
     25 HN14        -3.5910    -1.2430     1.0980 hn         1 Z94       0.150000
     26 H16         -5.7000    -1.1500     1.4430 hc         1 Z94       0.064700
     27 H16A        -6.4650     0.4140     1.1340 hc         1 Z94       0.064700
     28 H16B        -6.4450    -0.8140    -0.1210 hc         1 Z94       0.064700
@<TRIPOS>BOND
     1     1     2 1   
     2     1     3 1   
     3     1     4 1   
     4     1    18 1   
     5     2     5 ar  
     6     2     6 ar  
     7     3     7 1   
     8     3     8 2   
     9     4     9 1   
    10     4    19 1   
    11     5    10 ar  
    12     5    20 1   
    13     6    11 ar  
    14     6    21 1   
    15     7     9 1   
    16     7    22 1   
    17     9    12 2   
    18    10    13 ar  
    19    10    23 1   
    20    11    13 ar  
    21    11    24 1   
    22    13    14 1   
    23    14    15 1   
    24    14    25 1   
    25    15    16 1   
    26    15    17 2   
    27    16    26 1   
    28    16    27 1   
    29    16    28 1   
@<TRIPOS>SUBSTRUCTURE
     1 Z94         1 TEMP              0 ****  ****    0 ROOT
