@<TRIPOS>MOLECULE
Z94
   28    29     1     0     0
SMALL
No Charge or Current Charge


@<TRIPOS>ATOM
      1 C1           2.0850     0.5550    -0.6880 c5         1 Z94       0.075000
      2 C2           0.6060     0.3120    -0.3950 ca         1 Z94      -0.135300
      3 C3           2.8880     0.9790     0.5860 c          1 Z94       0.563000
      4 N4           2.8210    -0.6660    -1.0950 ns         1 Z94      -0.517900
      5 C5          -0.3800     1.1030    -1.0140 ca         1 Z94      -0.056000
      6 C6           0.2030    -0.7020     0.4960 ca         1 Z94      -0.056000
      7 N7           3.8480     0.0320     0.6670 ns         1 Z94      -0.486500
      8 O8           2.7370     1.9090     1.3640 o          1 Z94      -0.492000
      9 C9           3.8620    -0.9310    -0.2600 c          1 Z94       0.616000
     10 C10         -1.7440     0.8880    -0.7480 ca         1 Z94      -0.153500
     11 C11         -1.1600    -0.9170     0.7610 ca         1 Z94      -0.153500
     12 O12          4.6430    -1.8580    -0.3390 o          1 Z94      -0.542000
     13 C13         -2.1480    -0.1270     0.1450 ca         1 Z94      -0.003000
     14 N14         -3.5060    -0.4050     0.4640 ns         1 Z94      -0.148000
     15 C15         -4.7020     0.1640     0.0460 c          1 Z94       0.609100
     16 C16         -5.9420    -0.4730     0.6680 c3         1 Z94      -0.182100
     17 O17         -4.7950     1.0930    -0.7470 o          1 Z94      -0.577100
     18 H1           2.2140     1.3550    -1.4290 h1         1 Z94       0.083700
     19 HN4          2.6280    -1.2750    -1.8820 hn         1 Z94       0.350500
     20 H5          -0.0910     1.8910    -1.7060 ha         1 Z94       0.120500
     21 H6           0.9460    -1.3280     0.9860 ha         1 Z94       0.120500
     22 HN7          4.5320     0.0450     1.4070 hn         1 Z94       0.356500
     23 H10         -2.4670     1.5230    -1.2480 ha         1 Z94       0.132500
     24 H11         -1.4480    -1.7060     1.4530 ha         1 Z94       0.132500
     25 HN14        -3.6220    -1.1630     1.1230 hn         1 Z94       0.150000
     26 H16         -5.8520    -0.4390     1.7590 hc         1 Z94       0.064700
     27 H16A        -6.8730    -0.0090     0.3240 hc         1 Z94       0.064700
     28 H16B        -5.9280    -1.5500     0.4670 hc         1 Z94       0.064700
@<TRIPOS>BOND
     1     1     2 1   
     2     1     3 1   
     3     1     4 1   
     4     1    18 1   
     5     2     5 ar  
     6     2     6 ar  
     7     3     7 1   
     8     3     8 2   
     9     4     9 1   
    10     4    19 1   
    11     5    10 ar  
    12     5    20 1   
    13     6    11 ar  
    14     6    21 1   
    15     7     9 1   
    16     7    22 1   
    17     9    12 2   
    18    10    13 ar  
    19    10    23 1   
    20    11    13 ar  
    21    11    24 1   
    22    13    14 1   
    23    14    15 1   
    24    14    25 1   
    25    15    16 1   
    26    15    17 2   
    27    16    26 1   
    28    16    27 1   
    29    16    28 1   
@<TRIPOS>SUBSTRUCTURE
     1 Z94         1 TEMP              0 ****  ****    0 ROOT
