@<TRIPOS>MOLECULE
Z96
   69    73     1     0     0
SMALL
No Charge or Current Charge


@<TRIPOS>ATOM
      1 Cl           4.3080    -2.8220     2.7690 cl         1 Z96      -0.197000
      2 C1           1.5800     0.1270     3.2250 ca         1 Z96      -0.097000
      3 N1          -3.7520     0.5560     0.2170 n          1 Z96      -0.399800
      4 O1          -5.6910     0.9980    -0.9560 o          1 Z96      -0.553000
      5 C2           1.0420     2.8400     1.0220 ca         1 Z96       0.362300
      6 N2           3.7080    -0.9800    -2.8360 na         1 Z96      -0.159500
      7 O2          -5.3290    -1.0990    -0.0530 os         1 Z96      -0.476100
      8 C3           1.6060     2.7440    -0.2750 ca         1 Z96      -0.078800
      9 N3           4.2260    -3.1470    -2.7480 nc         1 Z96      -0.667000
     10 O3           0.5620    -0.6420    -2.6580 oh         1 Z96      -0.647000
     11 C4           2.1910     3.8890    -0.8430 ca         1 Z96      -0.075000
     12 N4           1.0780     3.9910     1.7500 nb         1 Z96      -0.671000
     13 C5           2.2250     5.0700    -0.0870 ca         1 Z96      -0.161000
     14 N5          -0.9400     1.1940     0.9390 n3         1 Z96      -0.720600
     15 C6           0.2980     1.6440     1.6610 c3         1 Z96       0.182500
     16 C7           1.2940     0.5060     1.8960 ca         1 Z96      -0.070300
     17 C8           1.9320    -0.1630     0.8180 ca         1 Z96      -0.020800
     18 C9           1.6540     0.2050    -0.6140 ce         1 Z96      -0.068400
     19 C10          1.6660     5.0770     1.2000 ca         1 Z96       0.343900
     20 C11          1.4300    -0.9790    -1.5740 c3         1 Z96       0.295800
     21 C12          1.5480     1.4970    -1.0520 cf         1 Z96      -0.117200
     22 C13          2.4960    -0.9000     3.4960 ca         1 Z96      -0.099000
     23 C14          3.1410    -1.5480     2.4380 ca         1 Z96       0.121000
     24 C15          2.8660    -1.1810     1.1130 ca         1 Z96      -0.105000
     25 C17         -1.6380     0.0640     1.6100 c6         1 Z96       0.143300
     26 C18         -2.8300    -0.4820     0.7790 c6         1 Z96       0.102000
     27 C19         -3.1140     1.8500    -0.1690 c6         1 Z96       0.102000
     28 C20         -1.9150     2.2930     0.7100 c6         1 Z96       0.143300
     29 C21          3.0290    -2.9350    -2.1280 cc         1 Z96       0.259900
     30 C22         -7.7710    -0.9810     0.1380 c3         1 Z96      -0.108100
     31 C24         -6.6050    -1.7260    -2.0500 c3         1 Z96      -0.108100
     32 C25         -5.0020     0.2090    -0.3270 c          1 Z96       0.654100
     33 C26         -6.4780    -3.1580     0.0360 c3         1 Z96      -0.108100
     34 C27          2.6730    -1.6130    -2.1550 cd         1 Z96      -0.268300
     35 C28          4.6330    -1.9580    -3.1740 cd         1 Z96       0.398400
     36 C29         -6.5610    -1.7120    -0.5000 c3         1 Z96       0.225000
     37 H1           1.0900     0.6310     4.0560 ha         1 Z96       0.122000
     38 HO3          0.6070    -1.3970    -3.2810 ho         1 Z96       0.446000
     39 H4           2.6190     3.8610    -1.8430 ha         1 Z96       0.115000
     40 H5           2.6780     5.9730    -0.4870 ha         1 Z96       0.126000
     41 H6          -0.0240     1.9880     2.6540 h1         1 Z96       0.056700
     42 H10          1.6810     5.9810     1.8070 h4         1 Z96       0.022100
     43 H11          0.9370    -1.7580    -0.9730 h1         1 Z96       0.086700
     44 H12          1.3540     1.6630    -2.1110 ha         1 Z96       0.181000
     45 H13          2.7110    -1.1850     4.5230 ha         1 Z96       0.133000
     46 H15          3.4050    -1.6880     0.3210 ha         1 Z96       0.141000
     47 H17         -0.9480    -0.7720     1.7940 h1         1 Z96       0.043450
     48 H17A        -2.0140     0.3880     2.5920 h1         1 Z96       0.043450
     49 H18         -3.3920    -1.1770     1.4180 h1         1 Z96       0.069950
     50 H18A        -2.4270    -1.0680    -0.0580 h1         1 Z96       0.069950
     51 H19         -2.7630     1.7580    -1.2070 h1         1 Z96       0.069950
     52 H19A        -3.8670     2.6510    -0.1570 h1         1 Z96       0.069950
     53 H20         -2.3020     2.6580     1.6740 h1         1 Z96       0.043450
     54 H20A        -1.4330     3.1490     0.2160 h1         1 Z96       0.043450
     55 H21          2.4890    -3.7640    -1.6880 h4         1 Z96       0.043100
     56 H22         -7.9450    -0.0010    -0.3170 hc         1 Z96       0.048700
     57 H22A        -8.6860    -1.5690     0.0010 hc         1 Z96       0.048700
     58 H22B        -7.6170    -0.8410     1.2150 hc         1 Z96       0.048700
     59 H23          3.9960     1.0240    -2.2430 h1         1 Z96       0.055700
     60 H23A         4.6770     0.6070    -3.8400 h1         1 Z96       0.055700
     61 H23B         2.9120     0.7950    -3.6550 h1         1 Z96       0.055700
     62 H24         -5.6580    -2.0940    -2.4630 hc         1 Z96       0.048700
     63 H24A        -7.4060    -2.3860    -2.4020 hc         1 Z96       0.048700
     64 H24B        -6.8000    -0.7310    -2.4640 hc         1 Z96       0.048700
     65 H26         -6.4010    -3.1650     1.1300 hc         1 Z96       0.048700
     66 H26A        -7.3710    -3.7300    -0.2450 hc         1 Z96       0.048700
     67 H26B        -5.6010    -3.6760    -0.3710 hc         1 Z96       0.048700
     68 H28          5.5460    -1.7350    -3.7140 h5         1 Z96       0.055100
     69 C23          3.8290     0.4490    -3.1620 c3         1 Z96       0.054900
@<TRIPOS>BOND
     1     1    23 1   
     2     2    16 ar  
     3     2    22 ar  
     4     2    37 1   
     5     3    26 1   
     6     3    27 1   
     7     3    32 1   
     8     4    32 2   
     9     5     8 ar  
    10     5    12 ar  
    11     5    15 1   
    12     6    34 1   
    13     6    35 1   
    14     6    69 1   
    15     7    32 1   
    16     7    36 1   
    17     8    11 ar  
    18     8    21 1   
    19     9    29 1   
    20     9    35 2   
    21    10    20 1   
    22    10    38 1   
    23    11    13 ar  
    24    11    39 1   
    25    12    19 ar  
    26    13    19 ar  
    27    13    40 1   
    28    14    15 1   
    29    14    25 1   
    30    14    28 1   
    31    15    16 1   
    32    15    41 1   
    33    16    17 ar  
    34    17    18 1   
    35    17    24 ar  
    36    18    20 1   
    37    18    21 2   
    38    19    42 1   
    39    20    34 1   
    40    20    43 1   
    41    21    44 1   
    42    22    23 ar  
    43    22    45 1   
    44    23    24 ar  
    45    24    46 1   
    46    25    26 1   
    47    25    47 1   
    48    25    48 1   
    49    26    49 1   
    50    26    50 1   
    51    27    28 1   
    52    27    51 1   
    53    27    52 1   
    54    28    53 1   
    55    28    54 1   
    56    29    34 2   
    57    29    55 1   
    58    30    36 1   
    59    30    56 1   
    60    30    57 1   
    61    30    58 1   
    62    31    36 1   
    63    31    62 1   
    64    31    63 1   
    65    31    64 1   
    66    33    36 1   
    67    33    65 1   
    68    33    66 1   
    69    33    67 1   
    70    35    68 1   
    71    59    69 1   
    72    60    69 1   
    73    61    69 1   
@<TRIPOS>SUBSTRUCTURE
     1 Z96         1 TEMP              0 ****  ****    0 ROOT
