@<TRIPOS>MOLECULE
Z96
   69    73     1     0     0
SMALL
bcc


@<TRIPOS>ATOM
      1 CL           3.8420    -2.7010     2.9330 cl         1 Z96      -0.105400
      2 C1           0.9710     0.0470     2.9500 ca         1 Z96      -0.115000
      3 N1          -3.5880     0.2770    -0.9240 n          1 Z96      -0.466800
      4 O1          -5.6970     1.0890    -0.7150 o          1 Z96      -0.602000
      5 C2           0.6100     2.6700     0.7710 ca         1 Z96       0.427600
      6 N2           4.2810    -0.8910    -2.2110 na         1 Z96      -0.180900
      7 O2          -5.2140    -1.0620    -0.2310 os         1 Z96      -0.452900
      8 C3           1.3500     2.6120    -0.4170 ca         1 Z96      -0.144100
      9 N3           4.8030    -3.0380    -2.2220 nc         1 Z96      -0.667000
     10 O3           1.1580    -0.6520    -3.0200 oh         1 Z96      -0.584800
     11 C4           1.9580     3.7920    -0.8450 ca         1 Z96      -0.093000
     12 N4           0.5310     3.7610     1.5200 nb         1 Z96      -0.671000
     13 C5           1.8720     4.9310    -0.0660 ca         1 Z96      -0.244300
     14 N5          -1.1010     1.0080     0.2310 n3         1 Z96      -0.720600
     15 C6          -0.1590     1.4570     1.2390 c3         1 Z96       0.182500
     16 C7           0.8610     0.4090     1.6110 ca         1 Z96      -0.070300
     17 C8           1.7020    -0.1940     0.6570 ca         1 Z96      -0.020800
     18 C9           1.6490     0.1520    -0.7740 ce         1 Z96      -0.068400
     19 C10          1.1580     4.8600     1.1210 ca         1 Z96       0.409200
     20 C11          1.7460    -0.9940    -1.7850 c3         1 Z96       0.272600
     21 C12          1.4820     1.4040    -1.2170 cf         1 Z96      -0.067200
     22 C13          1.8770    -0.9040     3.3830 ca         1 Z96      -0.117000
     23 C14          2.6900    -1.5030     2.4380 ca         1 Z96       0.029400
     24 C15          2.6080    -1.1630     1.1010 ca         1 Z96      -0.123000
     25 C17         -1.7150    -0.2690     0.5390 c6         1 Z96       0.143300
     26 C18         -2.5800    -0.7230    -0.6250 c6         1 Z96       0.102000
     27 C19         -3.0000     1.5720    -1.2020 c6         1 Z96       0.102000
     28 C20         -2.1080     2.0120    -0.0530 c6         1 Z96       0.143300
     29 C21          3.4710    -2.8980    -1.9840 cc         1 Z96       0.325200
     30 C22         -6.9950    -0.6600     1.4090 c3         1 Z96      -0.108100
     31 C24         -7.5430    -1.3340    -0.9630 c3         1 Z96      -0.108100
     32 C25         -4.9040     0.1710    -0.6190 c          1 Z96       0.770100
     33 C26         -6.3680    -2.9190     0.5590 c3         1 Z96      -0.108100
     34 C27          3.1130    -1.5760    -1.9670 cd         1 Z96      -0.282900
     35 C28          5.2520    -1.8160    -2.3540 cd         1 Z96       0.398400
     36 C29         -6.5480    -1.4520     0.1850 c3         1 Z96       0.201800
     37 H1           0.3140     0.5120     3.6740 ha         1 Z96       0.140000
     38 HO3          1.8400    -0.4150    -3.6550 ho         1 Z96       0.407000
     39 H4           2.5110     3.8050    -1.7770 ha         1 Z96       0.133000
     40 H5           2.3480     5.8540    -0.3670 ha         1 Z96       0.144000
     41 H6          -0.6790     1.7560     2.1640 h1         1 Z96       0.056700
     42 H10          1.0760     5.7270     1.7660 h4         1 Z96       0.022100
     43 H11          1.1400    -1.8110    -1.3750 h1         1 Z96       0.086700
     44 H12          1.4900     1.5700    -2.2890 ha         1 Z96       0.131000
     45 H13          1.9370    -1.1750     4.4280 ha         1 Z96       0.151000
     46 H15          3.2750    -1.6480     0.4040 ha         1 Z96       0.159000
     47 H17         -0.9440    -1.0240     0.7000 h1         1 Z96       0.043450
     48 H17A        -2.3280    -0.2290     1.4570 h1         1 Z96       0.043450
     49 H18         -3.0330    -1.6840    -0.4060 h1         1 Z96       0.069950
     50 H18A        -1.9440    -0.8440    -1.5070 h1         1 Z96       0.069950
     51 H19         -2.4020     1.4970    -2.1160 h1         1 Z96       0.069950
     52 H19A        -3.7790     2.3100    -1.3730 h1         1 Z96       0.069950
     53 H20         -2.7320     2.2270     0.8330 h1         1 Z96       0.043450
     54 H20A        -1.6260     2.9490    -0.3410 h1         1 Z96       0.043450
     55 H21          2.8210    -3.7460    -1.8210 h4         1 Z96       0.043100
     56 H22         -7.2000     0.3830     1.1800 hc         1 Z96       0.048700
     57 H22A        -7.9110    -1.1020     1.8040 hc         1 Z96       0.048700
     58 H22B        -6.2420    -0.7040     2.1970 hc         1 Z96       0.048700
     59 H23          4.2650     1.0360    -1.3750 h1         1 Z96       0.055700
     60 H23A         5.5350     0.7140    -2.5620 h1         1 Z96       0.055700
     61 H23B         3.8780     0.9690    -3.1020 h1         1 Z96       0.055700
     62 H24         -7.1870    -1.8680    -1.8460 hc         1 Z96       0.048700
     63 H24A        -8.4870    -1.7900    -0.6620 hc         1 Z96       0.048700
     64 H24B        -7.7450    -0.3020    -1.2390 hc         1 Z96       0.048700
     65 H26         -5.6480    -3.0360     1.3700 hc         1 Z96       0.048700
     66 H26A        -7.3180    -3.3380     0.8880 hc         1 Z96       0.048700
     67 H26B        -6.0220    -3.5050    -0.2940 hc         1 Z96       0.048700
     68 H28          6.2750    -1.5350    -2.5580 h5         1 Z96       0.055100
     69 C23          4.4920     0.5380    -2.3140 c3         1 Z96       0.025600
@<TRIPOS>BOND
     1     1    23 1   
     2     2    16 ar  
     3     2    22 ar  
     4     2    37 1   
     5     3    26 1   
     6     3    27 1   
     7     3    32 1   
     8     4    32 2   
     9     5     8 ar  
    10     5    12 ar  
    11     5    15 1   
    12     6    34 1   
    13     6    35 1   
    14     6    69 1   
    15     7    32 1   
    16     7    36 1   
    17     8    11 ar  
    18     8    21 1   
    19     9    29 1   
    20     9    35 2   
    21    10    20 1   
    22    10    38 1   
    23    11    13 ar  
    24    11    39 1   
    25    12    19 ar  
    26    13    19 ar  
    27    13    40 1   
    28    14    15 1   
    29    14    25 1   
    30    14    28 1   
    31    15    16 1   
    32    15    41 1   
    33    16    17 ar  
    34    17    18 1   
    35    17    24 ar  
    36    18    20 1   
    37    18    21 2   
    38    19    42 1   
    39    20    34 1   
    40    20    43 1   
    41    21    44 1   
    42    22    23 ar  
    43    22    45 1   
    44    23    24 ar  
    45    24    46 1   
    46    25    26 1   
    47    25    47 1   
    48    25    48 1   
    49    26    49 1   
    50    26    50 1   
    51    27    28 1   
    52    27    51 1   
    53    27    52 1   
    54    28    53 1   
    55    28    54 1   
    56    29    34 2   
    57    29    55 1   
    58    30    36 1   
    59    30    56 1   
    60    30    57 1   
    61    30    58 1   
    62    31    36 1   
    63    31    62 1   
    64    31    63 1   
    65    31    64 1   
    66    33    36 1   
    67    33    65 1   
    68    33    66 1   
    69    33    67 1   
    70    35    68 1   
    71    59    69 1   
    72    60    69 1   
    73    61    69 1   
@<TRIPOS>SUBSTRUCTURE
     1 Z96         1 TEMP              0 ****  ****    0 ROOT
