@<TRIPOS>MOLECULE
Z99
   43    46     1     0     0
SMALL
abcg2


@<TRIPOS>ATOM
      1 NAA         -1.6210     0.4430    -2.0080 n8         1 Z99      -1.005200
      2 OAB         -4.7560     1.6310     1.9100 o          1 Z99      -0.762500
      3 OAC         -1.9840    -2.0240    -1.1150 o          1 Z99      -0.729500
      4 OAD         -5.9830     0.3420     0.5690 o          1 Z99      -0.762500
      5 OAE         -1.4670    -1.5270     0.9950 o          1 Z99      -0.729500
      6 CAF          2.2080    -3.8020     0.1950 ca         1 Z99      -0.106000
      7 CAG          4.4310     2.7710     0.4250 ca         1 Z99      -0.106000
      8 CAH          1.4290    -3.5690    -0.9300 ca         1 Z99      -0.133500
      9 CAI          3.6850     3.1360    -0.6890 ca         1 Z99      -0.133500
     10 CAJ          2.7020    -2.7380     0.9330 ca         1 Z99      -0.140000
     11 CAK          4.1730     1.5740     1.0740 ca         1 Z99      -0.140000
     12 CAL          1.1180    -2.2690    -1.2960 ca         1 Z99      -0.056500
     13 CAM          2.6670     2.3060    -1.1340 ca         1 Z99      -0.056500
     14 CAN         -0.0360     0.7520    -0.1140 c3         1 Z99      -0.069400
     15 CAO         -3.0260     2.2990    -0.3210 cx         1 Z99      -0.169400
     16 OAP          2.9330    -0.4190     1.2670 os         1 Z99      -0.243200
     17 CAR         -1.6330    -1.2490    -0.2040 c          1 Z99       0.732000
     18 CAS          2.3850    -1.4460     0.5450 ca         1 Z99       0.128600
     19 CAT          3.1530     0.7550     0.6100 ca         1 Z99       0.128600
     20 CAU          1.5660    -1.1890    -0.5480 ca         1 Z99      -0.097800
     21 CAV          2.3780     1.1110    -0.4870 ca         1 Z99      -0.097800
     22 CAW          1.2110     0.2380    -0.8630 c6         1 Z99       0.035900
     23 CAX         -3.8830     1.0610    -0.2090 cx         1 Z99      -0.194700
     24 CAY         -1.4120     0.2450    -0.5830 c3         1 Z99       0.063200
     25 CAZ         -2.4470     1.0380     0.2150 cx         1 Z99      -0.072700
     26 HNAA        -1.0040     1.1490    -2.3860 hn         1 Z99       0.375000
     27 HNAB        -1.4520    -0.4260    -2.4940 hn         1 Z99       0.375000
     28 HAF          2.4510    -4.8140     0.4910 ha         1 Z99       0.090500
     29 HAG          5.2240     3.4120     0.7840 ha         1 Z99       0.090500
     30 HAH          1.0610    -4.3990    -1.5180 ha         1 Z99       0.100500
     31 HAI          3.8900     4.0660    -1.2010 ha         1 Z99       0.100500
     32 HAJ          3.3400    -2.9040     1.7920 ha         1 Z99       0.107500
     33 HAK          4.7600     1.2710     1.9320 ha         1 Z99       0.107500
     34 HAL          0.4990    -2.0880    -2.1630 ha         1 Z99       0.123500
     35 HAM          2.0740     2.5990    -1.9930 ha         1 Z99       0.123500
     36 HAN          0.0740     0.5460     0.9530 hc         1 Z99       0.045700
     37 HANA        -0.0370     1.8450    -0.2200 hc         1 Z99       0.045700
     38 HAO         -2.7400     2.6070    -1.3200 hc         1 Z99       0.037200
     39 HAOA        -3.2340     3.1060     0.3720 hc         1 Z99       0.037200
     40 HAW          1.0330     0.3300    -1.9400 hc         1 Z99       0.048700
     41 HAX         -4.0960     0.5600    -1.1470 hc         1 Z99       0.075700
     42 HAZ         -2.2960     1.0090     1.2880 hc         1 Z99       0.093700
     43 CAQ         -4.9630     1.0090     0.8470 c          1 Z99       0.741000
@<TRIPOS>BOND
     1     1    24 1   
     2     1    26 1   
     3     1    27 1   
     4     2    43 1   
     5     3    17 1   
     6     4    43 1   
     7     5    17 1   
     8     6     8 ar  
     9     6    10 ar  
    10     6    28 1   
    11     7     9 ar  
    12     7    11 ar  
    13     7    29 1   
    14     8    12 ar  
    15     8    30 1   
    16     9    13 ar  
    17     9    31 1   
    18    10    18 ar  
    19    10    32 1   
    20    11    19 ar  
    21    11    33 1   
    22    12    20 ar  
    23    12    34 1   
    24    13    21 ar  
    25    13    35 1   
    26    14    22 1   
    27    14    24 1   
    28    14    36 1   
    29    14    37 1   
    30    15    23 1   
    31    15    25 1   
    32    15    38 1   
    33    15    39 1   
    34    16    18 1   
    35    16    19 1   
    36    17    24 1   
    37    18    20 ar  
    38    19    21 ar  
    39    20    22 1   
    40    21    22 1   
    41    22    40 1   
    42    23    25 1   
    43    23    41 1   
    44    23    43 1   
    45    24    25 1   
    46    25    42 1   
@<TRIPOS>SUBSTRUCTURE
     1 Z99         1 TEMP              0 ****  ****    0 ROOT
