@<TRIPOS>MOLECULE
Z99
   43    46     1     0     0
SMALL
No Charge or Current Charge


@<TRIPOS>ATOM
      1 NAA         -1.5980     0.2080    -2.0100 n8         1 Z99      -1.005200
      2 OAB         -5.1590     0.2190     1.4790 o          1 Z99      -0.762500
      3 OAC         -2.1210    -2.2400    -0.5410 o          1 Z99      -0.729500
      4 OAD         -5.9640     1.9770     0.5350 o          1 Z99      -0.762500
      5 OAE         -1.2550    -1.5360     1.2920 o          1 Z99      -0.729500
      6 CAF          2.2550    -3.8950     0.1910 ca         1 Z99      -0.106000
      7 CAG          4.4720     2.8780     0.3690 ca         1 Z99      -0.106000
      8 CAH          1.3690    -3.6390    -0.8690 ca         1 Z99      -0.133500
      9 CAI          3.6060     3.2570    -0.6710 ca         1 Z99      -0.133500
     10 CAJ          2.8340    -2.8240     0.8920 ca         1 Z99      -0.140000
     11 CAK          4.3110     1.6300     0.9940 ca         1 Z99      -0.140000
     12 CAL          1.0460    -2.3150    -1.2170 ca         1 Z99      -0.056500
     13 CAM          2.5740     2.3950    -1.0810 ca         1 Z99      -0.056500
     14 CAN         -0.0500     0.7420    -0.1450 c3         1 Z99      -0.069400
     15 CAO         -3.0280     2.3110    -0.4050 cx         1 Z99      -0.169400
     16 OAP          3.1650    -0.4690     1.1780 os         1 Z99      -0.243200
     17 CAR         -1.6050    -1.3510     0.1310 c          1 Z99       0.732000
     18 CAS          2.5170    -1.5010     0.5410 ca         1 Z99       0.128600
     19 CAT          3.2850     0.7640     0.5800 ca         1 Z99       0.128600
     20 CAU          1.5980    -1.2360    -0.4970 ca         1 Z99      -0.097800
     21 CAV          2.4070     1.1420    -0.4560 ca         1 Z99      -0.097800
     22 CAW          1.2520     0.2170    -0.8510 c6         1 Z99       0.035900
     23 CAX         -3.9620     1.1100    -0.3460 cx         1 Z99      -0.194700
     24 CAY         -1.4460     0.1200    -0.5050 c3         1 Z99       0.063200
     25 CAZ         -2.5350     0.9980     0.1670 cx         1 Z99      -0.072700
     26 HNAA        -1.4450     1.1770    -2.3000 hn         1 Z99       0.375000
     27 HNAB        -0.8450    -0.3230    -2.4550 hn         1 Z99       0.375000
     28 HAF          2.5030    -4.9200     0.4580 ha         1 Z99       0.090500
     29 HAG          5.2680     3.5480     0.6860 ha         1 Z99       0.090500
     30 HAH          0.9300    -4.4660    -1.4210 ha         1 Z99       0.100500
     31 HAI          3.7290     4.2230    -1.1550 ha         1 Z99       0.100500
     32 HAJ          3.5430    -3.0170     1.6930 ha         1 Z99       0.107500
     33 HAK          4.9850     1.3300     1.7920 ha         1 Z99       0.107500
     34 HAL          0.3590    -2.1320    -2.0390 ha         1 Z99       0.123500
     35 HAM          1.8990     2.7030    -1.8780 ha         1 Z99       0.123500
     36 HAN          0.0930     0.6800     0.9400 hc         1 Z99       0.045700
     37 HANA        -0.1190     1.8180    -0.3500 hc         1 Z99       0.045700
     38 HAO         -2.6720     2.6270    -1.3820 hc         1 Z99       0.037200
     39 HAOA        -3.2000     3.1260     0.2940 hc         1 Z99       0.037200
     40 HAW          1.1070     0.2950    -1.9370 hc         1 Z99       0.048700
     41 HAX         -4.1930     0.6240    -1.2890 hc         1 Z99       0.075700
     42 HAZ         -2.4270     0.9780     1.2500 hc         1 Z99       0.093700
     43 CAQ         -5.1070     1.1130     0.6480 c          1 Z99       0.741000
@<TRIPOS>BOND
     1     1    24 1   
     2     1    26 1   
     3     1    27 1   
     4     2    43 1   
     5     3    17 1   
     6     4    43 1   
     7     5    17 1   
     8     6     8 ar  
     9     6    10 ar  
    10     6    28 1   
    11     7     9 ar  
    12     7    11 ar  
    13     7    29 1   
    14     8    12 ar  
    15     8    30 1   
    16     9    13 ar  
    17     9    31 1   
    18    10    18 ar  
    19    10    32 1   
    20    11    19 ar  
    21    11    33 1   
    22    12    20 ar  
    23    12    34 1   
    24    13    21 ar  
    25    13    35 1   
    26    14    22 1   
    27    14    24 1   
    28    14    36 1   
    29    14    37 1   
    30    15    23 1   
    31    15    25 1   
    32    15    38 1   
    33    15    39 1   
    34    16    18 1   
    35    16    19 1   
    36    17    24 1   
    37    18    20 ar  
    38    19    21 ar  
    39    20    22 1   
    40    21    22 1   
    41    22    40 1   
    42    23    25 1   
    43    23    41 1   
    44    23    43 1   
    45    24    25 1   
    46    25    42 1   
@<TRIPOS>SUBSTRUCTURE
     1 Z99         1 TEMP              0 ****  ****    0 ROOT
