@<TRIPOS>MOLECULE
Z9A
   51    51     1     0     0
SMALL
No Charge or Current Charge


@<TRIPOS>ATOM
      1 C18          5.5910    36.6600    61.9280 c3         1 Z9A      -0.156400
      2 C19          5.1820    36.5510    63.4170 c3         1 Z9A      -0.065400
      3 C20          5.7330    35.2860    64.1070 c3         1 Z9A      -0.035100
      4 C21          5.3160    35.2060    65.5690 ca         1 Z9A      -0.065300
      5 C22          4.1170    34.5630    65.9320 ca         1 Z9A      -0.106000
      6 C15          6.7880    47.3730    61.3500 c3         1 Z9A       0.151900
      7 C11          7.4020    43.7100    60.6650 c3         1 Z9A       0.060700
      8 C12          8.5140    43.7440    59.5920 c3         1 Z9A      -0.103100
      9 C13          6.6160    45.0480    60.7270 c          1 Z9A       0.576100
     10 C02          5.0260    37.9280    61.2810 c          1 Z9A       0.604100
     11 C04          5.6500    40.2280    60.4120 c3         1 Z9A       0.050700
     12 C05          5.4830    40.0620    58.8750 c3         1 Z9A      -0.184400
     13 C06          4.6600    41.1460    58.1810 c          1 Z9A       0.609100
     14 C09          6.7590    41.2610    60.7820 c          1 Z9A       0.593100
     15 C23          3.7290    34.4940    67.2820 ca         1 Z9A      -0.082000
     16 C24          4.5390    35.0710    68.2740 ca         1 Z9A      -0.018900
     17 C26          5.7350    35.7160    67.9200 ca         1 Z9A      -0.082000
     18 C27          6.1230    35.7840    66.5700 ca         1 Z9A      -0.106000
     19 N03          5.9490    38.9190    61.0360 ns         1 Z9A      -0.503900
     20 N07          4.4460    40.9710    56.8630 nt         1 Z9A      -0.603000
     21 O01          3.8480    38.0450    60.9800 o          1 Z9A      -0.597100
     22 O08          4.2190    42.1280    58.7530 o          1 Z9A      -0.616100
     23 O14          7.3850    46.0680    61.2300 os         1 Z9A      -0.442100
     24 O16          5.4470    45.1760    60.3830 o          1 Z9A      -0.473000
     25 O17          7.8030    40.9460    61.3430 o          1 Z9A      -0.614100
     26 Br25         4.0110    34.9780    70.1100 br         1 Z9A      -0.102100
     27 H1           5.1940    35.7880    61.3940 hc         1 Z9A       0.057200
     28 H2           6.6860    36.6640    61.8690 hc         1 Z9A       0.057200
     29 H3           5.5380    37.4380    63.9560 hc         1 Z9A       0.061200
     30 H4           4.0870    36.5530    63.4930 hc         1 Z9A       0.061200
     31 H5           5.3820    34.3980    63.5670 hc         1 Z9A       0.047200
     32 H6           6.8270    35.2790    64.0270 hc         1 Z9A       0.047200
     33 H7           3.4840    34.1160    65.1680 ha         1 Z9A       0.116000
     34 H8           7.5120    48.0870    61.7620 h1         1 Z9A       0.049367
     35 H9           6.4620    47.7460    60.3700 h1         1 Z9A       0.049367
     36 H10          5.9180    47.3460    62.0190 h1         1 Z9A       0.049367
     37 H11          7.8770    43.5920    61.6480 h1         1 Z9A       0.091700
     38 H12          9.2110    44.5690    59.7810 hc         1 Z9A       0.054700
     39 H13          9.0890    42.8100    59.5960 hc         1 Z9A       0.054700
     40 H14          8.0840    43.8790    58.5920 hc         1 Z9A       0.054700
     41 H15          4.7100    40.6010    60.8420 h1         1 Z9A       0.111700
     42 H16          5.0130    39.1060    58.6170 hc         1 Z9A       0.073700
     43 H17          6.4440    39.9600    58.3580 hc         1 Z9A       0.073700
     44 H18          2.8020    33.9950    67.5560 ha         1 Z9A       0.129000
     45 H19          6.3620    36.1640    68.6880 ha         1 Z9A       0.129000
     46 H20          7.0490    36.2880    66.3020 ha         1 Z9A       0.116000
     47 H21          6.9020    38.7430    61.3380 hn         1 Z9A       0.334500
     48 H22          3.9110    41.6600    56.3560 hn         1 Z9A       0.316500
     49 H23          4.8160    40.1580    56.3930 hn         1 Z9A       0.316500
     50 H24          5.5970    42.7430    59.9810 hn         1 Z9A       0.345500
     51 N10          6.4870    42.5690    60.4480 ns         1 Z9A      -0.483900
@<TRIPOS>BOND
     1     1     2 1   
     2     1    10 1   
     3     1    27 1   
     4     1    28 1   
     5     2     3 1   
     6     2    29 1   
     7     2    30 1   
     8     3     4 1   
     9     3    31 1   
    10     3    32 1   
    11     4     5 ar  
    12     4    18 ar  
    13     5    15 ar  
    14     5    33 1   
    15     6    23 1   
    16     6    34 1   
    17     6    35 1   
    18     6    36 1   
    19     7     8 1   
    20     7     9 1   
    21     7    37 1   
    22     7    51 1   
    23     8    38 1   
    24     8    39 1   
    25     8    40 1   
    26     9    23 1   
    27     9    24 2   
    28    10    19 1   
    29    10    21 2   
    30    11    12 1   
    31    11    14 1   
    32    11    19 1   
    33    11    41 1   
    34    12    13 1   
    35    12    42 1   
    36    12    43 1   
    37    13    20 1   
    38    13    22 2   
    39    14    25 2   
    40    14    51 1   
    41    15    16 ar  
    42    15    44 1   
    43    16    17 ar  
    44    16    26 1   
    45    17    18 ar  
    46    17    45 1   
    47    18    46 1   
    48    19    47 1   
    49    20    48 1   
    50    20    49 1   
    51    50    51 1   
@<TRIPOS>SUBSTRUCTURE
     1 Z9A         1 TEMP              0 ****  ****    0 ROOT
