@<TRIPOS>MOLECULE
Z9A
   51    51     1     0     0
SMALL
abcg2


@<TRIPOS>ATOM
      1 C18          5.9400    37.2590    62.3430 c3         1 Z9A      -0.156400
      2 C19          5.1920    37.0680    63.6570 c3         1 Z9A      -0.065400
      3 C20          5.8670    36.0090    64.5300 c3         1 Z9A      -0.035100
      4 C21          5.1570    35.8180    65.8390 ca         1 Z9A      -0.065300
      5 C22          4.1020    34.9160    65.9550 ca         1 Z9A      -0.106000
      6 C15          8.4860    45.3220    62.7020 c3         1 Z9A       0.151900
      7 C11          6.7990    43.7210    59.8380 c3         1 Z9A       0.060700
      8 C12          5.9730    44.8680    59.2600 c3         1 Z9A      -0.103100
      9 C13          7.1390    44.0020    61.2960 c          1 Z9A       0.576100
     10 C02          5.2860    38.2760    61.4330 c          1 Z9A       0.604100
     11 C04          5.7230    40.0900    59.8400 c3         1 Z9A       0.050700
     12 C05          5.7930    39.5380    58.4090 c3         1 Z9A      -0.184400
     13 C06          5.2020    40.4820    57.3810 c          1 Z9A       0.609100
     14 C09          6.6380    41.3030    59.9830 c          1 Z9A       0.593100
     15 C23          3.4200    34.7500    67.1520 ca         1 Z9A      -0.082000
     16 C24          3.8010    35.5030    68.2530 ca         1 Z9A      -0.018900
     17 C26          4.8420    36.4140    68.1680 ca         1 Z9A      -0.082000
     18 C27          5.5100    36.5630    66.9610 ca         1 Z9A      -0.106000
     19 N03          6.1400    39.1030    60.8000 ns         1 Z9A      -0.503900
     20 N07          5.8680    40.5550    56.2220 nt         1 Z9A      -0.603000
     21 O01          4.0750    38.3270    61.2740 o          1 Z9A      -0.597100
     22 O08          4.1760    41.1100    57.6040 o          1 Z9A      -0.616100
     23 O14          8.0960    44.9090    61.3910 os         1 Z9A      -0.442100
     24 O16          6.5890    43.4940    62.2360 o          1 Z9A      -0.473000
     25 O17          7.8190    41.1810    60.2720 o          1 Z9A      -0.614100
     26 BR25         2.8920    35.2780    69.8950 br         1 Z9A      -0.102100
     27 H1           5.9700    36.3090    61.7990 hc         1 Z9A       0.057200
     28 H2           6.9800    37.5280    62.5420 hc         1 Z9A       0.057200
     29 H3           5.1530    38.0150    64.2040 hc         1 Z9A       0.061200
     30 H4           4.1590    36.7750    63.4620 hc         1 Z9A       0.061200
     31 H5           5.8980    35.0610    63.9850 hc         1 Z9A       0.047200
     32 H6           6.9040    36.2990    64.7140 hc         1 Z9A       0.047200
     33 H7           3.8070    34.3220    65.0980 ha         1 Z9A       0.116000
     34 H8           9.2610    46.0700    62.5620 h1         1 Z9A       0.049367
     35 H9           7.6500    45.7620    63.2450 h1         1 Z9A       0.049367
     36 H10          8.8870    44.4870    63.2760 h1         1 Z9A       0.049367
     37 H11          7.7330    43.6440    59.2750 h1         1 Z9A       0.091700
     38 H12          6.5340    45.8000    59.2840 hc         1 Z9A       0.054700
     39 H13          5.7210    44.6540    58.2220 hc         1 Z9A       0.054700
     40 H14          5.0460    45.0100    59.8180 hc         1 Z9A       0.054700
     41 H15          4.6940    40.3710    60.0620 h1         1 Z9A       0.111700
     42 H16          5.2060    38.6160    58.3770 hc         1 Z9A       0.073700
     43 H17          6.8220    39.2660    58.1650 hc         1 Z9A       0.073700
     44 H18          2.6080    34.0380    67.2170 ha         1 Z9A       0.129000
     45 H19          5.1420    37.0020    69.0260 ha         1 Z9A       0.129000
     46 H20          6.3280    37.2710    66.8970 ha         1 Z9A       0.116000
     47 H21          7.1320    39.0060    60.9560 hn         1 Z9A       0.334500
     48 H22          5.5110    41.1140    55.4640 hn         1 Z9A       0.316500
     49 H23          6.7020    40.0200    56.0510 hn         1 Z9A       0.316500
     50 H24          5.0750    42.5310    59.5550 hn         1 Z9A       0.345500
     51 N10          6.0670    42.4880    59.7300 ns         1 Z9A      -0.483900
@<TRIPOS>BOND
     1     1     2 1   
     2     1    10 1   
     3     1    27 1   
     4     1    28 1   
     5     2     3 1   
     6     2    29 1   
     7     2    30 1   
     8     3     4 1   
     9     3    31 1   
    10     3    32 1   
    11     4     5 ar  
    12     4    18 ar  
    13     5    15 ar  
    14     5    33 1   
    15     6    23 1   
    16     6    34 1   
    17     6    35 1   
    18     6    36 1   
    19     7     8 1   
    20     7     9 1   
    21     7    37 1   
    22     7    51 1   
    23     8    38 1   
    24     8    39 1   
    25     8    40 1   
    26     9    23 1   
    27     9    24 2   
    28    10    19 1   
    29    10    21 2   
    30    11    12 1   
    31    11    14 1   
    32    11    19 1   
    33    11    41 1   
    34    12    13 1   
    35    12    42 1   
    36    12    43 1   
    37    13    20 1   
    38    13    22 2   
    39    14    25 2   
    40    14    51 1   
    41    15    16 ar  
    42    15    44 1   
    43    16    17 ar  
    44    16    26 1   
    45    17    18 ar  
    46    17    45 1   
    47    18    46 1   
    48    19    47 1   
    49    20    48 1   
    50    20    49 1   
    51    50    51 1   
@<TRIPOS>SUBSTRUCTURE
     1 Z9A         1 TEMP              0 ****  ****    0 ROOT
