@<TRIPOS>MOLECULE
Z9D
   23    23     1     0     0
SMALL
No Charge or Current Charge


@<TRIPOS>ATOM
      1 C1          21.8540    53.8730    65.9680 c6         1 Z9D       0.407300
      2 C2          22.1250    52.5170    65.2220 c6         1 Z9D       0.149300
      3 C3          22.3730    51.4060    66.2830 c6         1 Z9D       0.128300
      4 C4          23.5000    51.8340    67.2510 c6         1 Z9D      -0.137400
      5 C5          23.1720    53.2180    67.8800 c6         1 Z9D       0.185300
      6 C6          24.3180    53.7650    68.7910 c3         1 Z9D       0.163600
      7 O1          21.7990    54.9740    65.0850 oh         1 Z9D      -0.681000
      8 O2          21.0510    52.1040    64.3440 oh         1 Z9D      -0.708000
      9 O3          22.7050    50.1660    65.6370 oh         1 Z9D      -0.723000
     10 O5          22.9530    54.1860    66.8280 os         1 Z9D      -0.499000
     11 O6          24.5940    52.9140    69.9220 oh         1 Z9D      -0.726000
     12 HO1         22.4920    55.5630    65.4540 ho         1 Z9D       0.516000
     13 H1          20.9250    53.8110    66.5560 h2         1 Z9D       0.023700
     14 H2          23.0520    52.6410    64.6410 h1         1 Z9D       0.070700
     15 H3          21.4510    51.2810    66.8710 h1         1 Z9D       0.037700
     16 H41         23.6190    51.0850    68.0450 hc         1 Z9D       0.068200
     17 H42         24.4590    51.8880    66.7180 hc         1 Z9D       0.068200
     18 H5          22.2560    53.1430    68.4850 h1         1 Z9D       0.042700
     19 H61         25.2210    53.8800    68.1760 h1         1 Z9D       0.036200
     20 H62         24.0260    54.7660    69.1370 h1         1 Z9D       0.036200
     21 HO2         21.2020    51.1350    64.2230 ho         1 Z9D       0.520000
     22 HO3         22.8520    49.4980    66.3480 ho         1 Z9D       0.511000
     23 HO6         25.3220    53.3420    70.4320 ho         1 Z9D       0.511000
@<TRIPOS>BOND
     1     1     2 1   
     2     1     7 1   
     3     1    10 1   
     4     1    13 1   
     5     2     3 1   
     6     2     8 1   
     7     2    14 1   
     8     3     4 1   
     9     3     9 1   
    10     3    15 1   
    11     4     5 1   
    12     4    16 1   
    13     4    17 1   
    14     5     6 1   
    15     5    10 1   
    16     5    18 1   
    17     6    11 1   
    18     6    19 1   
    19     6    20 1   
    20     7    12 1   
    21     8    21 1   
    22     9    22 1   
    23    11    23 1   
@<TRIPOS>SUBSTRUCTURE
     1 Z9D         1 TEMP              0 ****  ****    0 ROOT
