@<TRIPOS>MOLECULE
Z9D
   23    23     1     0     0
SMALL
abcg2


@<TRIPOS>ATOM
      1 C1          22.0250    53.8520    65.9600 c6         1 Z9D       0.407300
      2 C2          22.2330    52.5010    65.2830 c6         1 Z9D       0.149300
      3 C3          22.4190    51.4300    66.3530 c6         1 Z9D       0.128300
      4 C4          23.5340    51.8260    67.3100 c6         1 Z9D      -0.137400
      5 C5          23.2590    53.2140    67.8700 c6         1 Z9D       0.185300
      6 C6          24.3770    53.7490    68.7470 c3         1 Z9D       0.163600
      7 O1          21.9620    54.8310    64.9930 oh         1 Z9D      -0.681000
      8 O2          21.1110    52.2450    64.4760 oh         1 Z9D      -0.708000
      9 O3          22.6750    50.2150    65.6810 oh         1 Z9D      -0.723000
     10 O5          23.1100    54.1390    66.8080 os         1 Z9D      -0.499000
     11 O6          24.5220    52.8840    69.8490 oh         1 Z9D      -0.726000
     12 HO1         21.5480    55.6180    65.3620 ho         1 Z9D       0.516000
     13 H1          21.0970    53.8150    66.5590 h2         1 Z9D       0.023700
     14 H2          23.1570    52.5570    64.6840 h1         1 Z9D       0.070700
     15 H3          21.4790    51.3620    66.9230 h1         1 Z9D       0.037700
     16 H41         23.6020    51.0980    68.1200 hc         1 Z9D       0.068200
     17 H42         24.4950    51.8270    66.7830 hc         1 Z9D       0.068200
     18 H5          22.3310    53.1840    68.4640 h1         1 Z9D       0.042700
     19 H61         25.2990    53.8120    68.1530 h1         1 Z9D       0.036200
     20 H62         24.1220    54.7680    69.0630 h1         1 Z9D       0.036200
     21 HO2         21.1880    51.3440    64.1460 ho         1 Z9D       0.520000
     22 HO3         22.5510    49.4900    66.3020 ho         1 Z9D       0.511000
     23 HO6         25.2260    53.2270    70.4060 ho         1 Z9D       0.511000
@<TRIPOS>BOND
     1     1     2 1   
     2     1     7 1   
     3     1    10 1   
     4     1    13 1   
     5     2     3 1   
     6     2     8 1   
     7     2    14 1   
     8     3     4 1   
     9     3     9 1   
    10     3    15 1   
    11     4     5 1   
    12     4    16 1   
    13     4    17 1   
    14     5     6 1   
    15     5    10 1   
    16     5    18 1   
    17     6    11 1   
    18     6    19 1   
    19     6    20 1   
    20     7    12 1   
    21     8    21 1   
    22     9    22 1   
    23    11    23 1   
@<TRIPOS>SUBSTRUCTURE
     1 Z9D         1 TEMP              0 ****  ****    0 ROOT
