@<TRIPOS>MOLECULE
Z9E
   24    24     1     0     0
SMALL
No Charge or Current Charge


@<TRIPOS>ATOM
      1 C1          61.4990    17.7220     8.2830 c6         1 Z9E       0.340300
      2 S1          60.2350    16.9700     7.1110 sh         1 Z9E      -0.474800
      3 C2          62.4780    16.6580     8.8920 c6         1 Z9E       0.160300
      4 O2          63.1880    15.8950     7.8920 oh         1 Z9E      -0.698000
      5 C3          61.7020    15.7010     9.8410 c6         1 Z9E       0.128300
      6 O3          62.5990    14.7540    10.4520 oh         1 Z9E      -0.668000
      7 C4          60.9570    16.5190    10.9350 c6         1 Z9E       0.115300
      8 O4          60.2280    15.6200    11.8010 oh         1 Z9E      -0.724000
      9 C5          60.0200    17.5660    10.2440 c6         1 Z9E       0.134300
     10 O5          60.7940    18.4110     9.3440 os         1 Z9E      -0.431000
     11 C6          59.2880    18.5010    11.2620 c3         1 Z9E       0.165600
     12 O6          60.1860    19.3000    12.0600 oh         1 Z9E      -0.716000
     13 H1          62.0920    18.4520     7.7110 h2         1 Z9E       0.107700
     14 HS1         59.6400    18.1490     6.8090 hs         1 Z9E       0.214800
     15 H2          63.2070    17.2110     9.5040 h1         1 Z9E       0.057700
     16 HO2         63.4870    15.0820     8.3680 ho         1 Z9E       0.524000
     17 H3          60.9460    15.1620     9.2490 h1         1 Z9E       0.068700
     18 HO3         62.0990    14.3990    11.2240 ho         1 Z9E       0.464000
     19 H4          61.7110    17.0720    11.5170 h1         1 Z9E       0.071700
     20 H5          59.2460    17.0360     9.6700 h1         1 Z9E       0.072700
     21 H61         58.6170    19.1550    10.6880 h1         1 Z9E       0.033700
     22 H62         58.6510    17.8840    11.9100 h1         1 Z9E       0.033700
     23 HO6         59.6330    19.9540    12.5490 ho         1 Z9E       0.505000
     24 HO4         60.0360    16.1110    12.6360 ho         1 Z9E       0.514000
@<TRIPOS>BOND
     1     1     2 1   
     2     1     3 1   
     3     1    10 1   
     4     1    13 1   
     5     2    14 1   
     6     3     4 1   
     7     3     5 1   
     8     3    15 1   
     9     4    16 1   
    10     5     6 1   
    11     5     7 1   
    12     5    17 1   
    13     6    18 1   
    14     7     8 1   
    15     7     9 1   
    16     7    19 1   
    17     8    24 1   
    18     9    10 1   
    19     9    11 1   
    20     9    20 1   
    21    11    12 1   
    22    11    21 1   
    23    11    22 1   
    24    12    23 1   
@<TRIPOS>SUBSTRUCTURE
     1 Z9E         1 TEMP              0 ****  ****    0 ROOT
