@<TRIPOS>MOLECULE
Z9E
   24    24     1     0     0
SMALL
abcg2


@<TRIPOS>ATOM
      1 C1          61.4770    17.6990     8.3590 c6         1 Z9E       0.340300
      2 S1          60.3460    16.9230     7.1260 sh         1 Z9E      -0.474800
      3 C2          62.3980    16.6250     8.9380 c6         1 Z9E       0.160300
      4 O2          62.9480    15.8980     7.8740 oh         1 Z9E      -0.698000
      5 C3          61.6520    15.7380     9.9280 c6         1 Z9E       0.128300
      6 O3          62.6060    14.8760    10.5010 oh         1 Z9E      -0.668000
      7 C4          60.9540    16.6020    10.9690 c6         1 Z9E       0.115300
      8 O4          60.2200    15.7480    11.8170 oh         1 Z9E      -0.724000
      9 C5          60.0370    17.5960    10.2500 c6         1 Z9E       0.134300
     10 O5          60.8070    18.3900     9.3610 os         1 Z9E      -0.431000
     11 C6          59.2840    18.5220    11.1770 c3         1 Z9E       0.165600
     12 O6          60.1880    19.2060    12.0110 oh         1 Z9E      -0.716000
     13 H1          62.0700    18.4420     7.8250 h2         1 Z9E       0.107700
     14 HS1         59.7280    18.0620     6.7920 hs         1 Z9E       0.214800
     15 H2          63.1810    17.1630     9.4960 h1         1 Z9E       0.057700
     16 HO2         63.5230    15.2200     8.2440 ho         1 Z9E       0.524000
     17 H3          60.8850    15.1600     9.3880 h1         1 Z9E       0.068700
     18 HO3         62.1430    14.2210    11.0320 ho         1 Z9E       0.464000
     19 H4          61.7180    17.1540    11.5310 h1         1 Z9E       0.071700
     20 H5          59.2820    17.0300     9.6860 h1         1 Z9E       0.072700
     21 H61         58.6840    19.2120    10.5680 h1         1 Z9E       0.033700
     22 H62         58.5730    17.9160    11.7500 h1         1 Z9E       0.033700
     23 HO6         59.6800    19.7250    12.6420 ho         1 Z9E       0.505000
     24 HO4         60.1550    16.1550    12.6860 ho         1 Z9E       0.514000
@<TRIPOS>BOND
     1     1     2 1   
     2     1     3 1   
     3     1    10 1   
     4     1    13 1   
     5     2    14 1   
     6     3     4 1   
     7     3     5 1   
     8     3    15 1   
     9     4    16 1   
    10     5     6 1   
    11     5     7 1   
    12     5    17 1   
    13     6    18 1   
    14     7     8 1   
    15     7     9 1   
    16     7    19 1   
    17     8    24 1   
    18     9    10 1   
    19     9    11 1   
    20     9    20 1   
    21    11    12 1   
    22    11    21 1   
    23    11    22 1   
    24    12    23 1   
@<TRIPOS>SUBSTRUCTURE
     1 Z9E         1 TEMP              0 ****  ****    0 ROOT
