@<TRIPOS>MOLECULE
Z9G
   37    37     1     0     0
SMALL
No Charge or Current Charge


@<TRIPOS>ATOM
      1 C13          1.9230    33.5740    59.0670 c3         1 Z9G      -0.062400
      2 C14          2.4440    34.6770    60.0130 c3         1 Z9G      -0.041100
      3 C15          2.1580    34.3580    61.4740 ca         1 Z9G      -0.048300
      4 C16          0.9580    34.7890    62.0730 ca         1 Z9G      -0.108000
      5 C18          1.6230    33.7550    64.1730 ca         1 Z9G      -0.024900
      6 C02          1.6730    32.7470    56.6750 c          1 Z9G       0.612100
      7 C04          2.3940    30.7680    55.2440 c3         1 Z9G      -0.038300
      8 C05          2.3620    29.4330    56.0380 c3         1 Z9G      -0.149400
      9 C06          1.2120    29.3700    57.0450 c          1 Z9G       0.598100
     10 C09          3.4430    30.7310    54.0920 c          1 Z9G       0.715000
     11 C12          2.2040    33.8690    57.5750 c3         1 Z9G      -0.164400
     12 C17          0.6910    34.4890    63.4210 ca         1 Z9G      -0.085500
     13 C20          2.8210    33.3200    63.5820 ca         1 Z9G      -0.085500
     14 C21          3.0870    33.6210    62.2340 ca         1 Z9G      -0.108000
     15 N03          2.6430    31.9320    56.1310 ns         1 Z9G      -0.458900
     16 N07          1.5290    29.6220    58.3340 nt         1 Z9G      -0.629000
     17 O01          0.4820    32.6080    56.4330 o          1 Z9G      -0.618100
     18 O08          0.0680    29.0800    56.7370 o          1 Z9G      -0.612100
     19 O10          4.6320    30.7350    54.3830 o          1 Z9G      -0.720000
     20 O11          3.0340    30.7710    52.9400 o          1 Z9G      -0.720000
     21 Br19         1.2610    33.3460    66.0050 br         1 Z9G      -0.123100
     22 H1           0.8420    33.4550    59.2170 hc         1 Z9G       0.057200
     23 H2           2.3890    32.6180    59.3410 hc         1 Z9G       0.057200
     24 H3           3.5230    34.8040    59.8600 hc         1 Z9G       0.044200
     25 H4           1.9820    35.6340    59.7390 hc         1 Z9G       0.044200
     26 H5           0.2310    35.3550    61.4950 ha         1 Z9G       0.118000
     27 H6           1.4170    30.9010    54.7610 h1         1 Z9G       0.089700
     28 H7           2.2420    28.6120    55.3210 hc         1 Z9G       0.063700
     29 H8           3.3200    29.3340    56.5630 hc         1 Z9G       0.063700
     30 H9           3.2870    33.9760    57.4420 hc         1 Z9G       0.047200
     31 H10          1.7020    34.8050    57.3050 hc         1 Z9G       0.047200
     32 H11         -0.2370    34.8240    63.8790 ha         1 Z9G       0.122500
     33 H12          3.5420    32.7510    64.1640 ha         1 Z9G       0.122500
     34 H13          4.0150    33.2790    61.7810 ha         1 Z9G       0.118000
     35 H14          3.6040    32.1560    56.3610 hn         1 Z9G       0.282500
     36 H15          0.8070    29.5820    59.0380 hn         1 Z9G       0.296000
     37 H16          2.4800    29.8490    58.5840 hn         1 Z9G       0.296000
@<TRIPOS>BOND
     1     1     2 1   
     2     1    11 1   
     3     1    22 1   
     4     1    23 1   
     5     2     3 1   
     6     2    24 1   
     7     2    25 1   
     8     3     4 ar  
     9     3    14 ar  
    10     4    12 ar  
    11     4    26 1   
    12     5    12 ar  
    13     5    13 ar  
    14     5    21 1   
    15     6    11 1   
    16     6    15 1   
    17     6    17 2   
    18     7     8 1   
    19     7    10 1   
    20     7    15 1   
    21     7    27 1   
    22     8     9 1   
    23     8    28 1   
    24     8    29 1   
    25     9    16 1   
    26     9    18 2   
    27    10    19 1   
    28    10    20 1   
    29    11    30 1   
    30    11    31 1   
    31    12    32 1   
    32    13    14 ar  
    33    13    33 1   
    34    14    34 1   
    35    15    35 1   
    36    16    36 1   
    37    16    37 1   
@<TRIPOS>SUBSTRUCTURE
     1 Z9G         1 TEMP              0 ****  ****    0 ROOT
