@<TRIPOS>MOLECULE
Z9G
   37    37     1     0     0
SMALL
abcg2


@<TRIPOS>ATOM
      1 C13          1.8650    33.4560    59.5490 c3         1 Z9G      -0.062400
      2 C14          2.7120    34.3270    60.4780 c3         1 Z9G      -0.041100
      3 C15          2.0220    34.5800    61.7880 ca         1 Z9G      -0.048300
      4 C16          1.2380    35.7140    61.9810 ca         1 Z9G      -0.108000
      5 C18          0.6760    35.0010    64.1930 ca         1 Z9G      -0.024900
      6 C02          1.7620    32.3320    57.2780 c          1 Z9G       0.612100
      7 C04          1.9370    30.7760    55.3850 c3         1 Z9G      -0.038300
      8 C05          2.7150    29.4800    55.1980 c3         1 Z9G      -0.149400
      9 C06          2.6350    28.5700    56.4070 c          1 Z9G       0.598100
     10 C09          1.8930    31.6130    54.0720 c          1 Z9G       0.715000
     11 C12          2.5790    33.1790    58.2340 c3         1 Z9G      -0.164400
     12 C17          0.5630    35.9340    63.1730 ca         1 Z9G      -0.085500
     13 C20          1.4500    33.8610    64.0330 ca         1 Z9G      -0.085500
     14 C21          2.1150    33.6630    62.8320 ca         1 Z9G      -0.108000
     15 N03          2.4830    31.5040    56.5050 ns         1 Z9G      -0.458900
     16 N07          3.7800    27.9480    56.7320 nt         1 Z9G      -0.629000
     17 O01          0.5410    32.4060    57.2290 o          1 Z9G      -0.618100
     18 O08          1.5940    28.3970    57.0240 o          1 Z9G      -0.612100
     19 O10          2.1490    32.8240    54.1610 o          1 Z9G      -0.720000
     20 O11          1.5770    30.9710    53.0510 o          1 Z9G      -0.720000
     21 BR19        -0.2350    35.2860    65.8250 br         1 Z9G      -0.123100
     22 H1           0.9110    33.9510    59.3600 hc         1 Z9G       0.057200
     23 H2           1.6340    32.5120    60.0510 hc         1 Z9G       0.057200
     24 H3           3.6740    33.8380    60.6580 hc         1 Z9G       0.044200
     25 H4           2.9310    35.2770    59.9850 hc         1 Z9G       0.044200
     26 H5           1.1480    36.4470    61.1880 ha         1 Z9G       0.118000
     27 H6           0.9050    30.5190    55.6350 h1         1 Z9G       0.089700
     28 H7           2.2930    28.9400    54.3480 hc         1 Z9G       0.063700
     29 H8           3.7560    29.6950    54.9390 hc         1 Z9G       0.063700
     30 H9           3.5480    32.7110    58.4250 hc         1 Z9G       0.047200
     31 H10          2.7950    34.1260    57.7270 hc         1 Z9G       0.047200
     32 H11         -0.0380    36.8260    63.2960 ha         1 Z9G       0.122500
     33 H12          1.5420    33.1330    64.8270 ha         1 Z9G       0.122500
     34 H13          2.7210    32.7720    62.7120 ha         1 Z9G       0.118000
     35 H14          3.4870    31.5940    56.5420 hn         1 Z9G       0.282500
     36 H15          3.8010    27.2820    57.4870 hn         1 Z9G       0.296000
     37 H16          4.6280    28.0840    56.2110 hn         1 Z9G       0.296000
@<TRIPOS>BOND
     1     1     2 1   
     2     1    11 1   
     3     1    22 1   
     4     1    23 1   
     5     2     3 1   
     6     2    24 1   
     7     2    25 1   
     8     3     4 ar  
     9     3    14 ar  
    10     4    12 ar  
    11     4    26 1   
    12     5    12 ar  
    13     5    13 ar  
    14     5    21 1   
    15     6    11 1   
    16     6    15 1   
    17     6    17 2   
    18     7     8 1   
    19     7    10 1   
    20     7    15 1   
    21     7    27 1   
    22     8     9 1   
    23     8    28 1   
    24     8    29 1   
    25     9    16 1   
    26     9    18 2   
    27    10    19 1   
    28    10    20 1   
    29    11    30 1   
    30    11    31 1   
    31    12    32 1   
    32    13    14 ar  
    33    13    33 1   
    34    14    34 1   
    35    15    35 1   
    36    16    36 1   
    37    16    37 1   
@<TRIPOS>SUBSTRUCTURE
     1 Z9G         1 TEMP              0 ****  ****    0 ROOT
