@<TRIPOS>MOLECULE
Z9H
   36    36     1     0     0
SMALL
bcc


@<TRIPOS>ATOM
      1 O4          53.7230    -3.1300    -9.2000 os         1 Z9H      -0.407600
      2 C7          52.5130    -3.4150    -8.5370 c3         1 Z9H       0.135700
      3 C4          53.9550    -1.7700    -9.4700 c6         1 Z9H       0.102100
      4 C5          54.4080    -1.6330   -10.9270 c6         1 Z9H       0.135100
      5 O5          54.7410    -0.2850   -11.2110 os         1 Z9H      -0.374600
      6 C6          53.3170    -2.0290   -11.8980 c3         1 Z9H       0.199400
      7 O6          53.8640    -1.9650   -13.2060 os         1 Z9H      -0.555500
      8 S1          53.0760    -2.7810   -14.3970 s6         1 Z9H       1.504300
      9 O7          53.8860    -2.4210   -15.5570 o          1 Z9H      -0.720200
     10 O8          51.7130    -2.2430   -14.4050 o          1 Z9H      -0.720200
     11 O12         53.1500    -4.1940   -14.0160 o          1 Z9H      -0.720200
     12 C3          55.0430    -1.2290    -8.5430 c6         1 Z9H       0.126100
     13 O3          54.5700    -1.2670    -7.2210 os         1 Z9H      -0.410600
     14 C8          55.4900    -1.7330    -6.2620 c3         1 Z9H       0.143700
     15 C2          55.4040     0.1940    -8.9540 c6         1 Z9H       0.115100
     16 O2          56.5260     0.6150    -8.1940 os         1 Z9H      -0.584500
     17 S2          56.5330     2.1610    -7.5960 s6         1 Z9H       1.498300
     18 O9          55.4800     2.1830    -6.5800 o          1 Z9H      -0.709867
     19 O10         56.2640     3.0200    -8.7520 o          1 Z9H      -0.709867
     20 O11         57.8910     2.2340    -7.0700 o          1 Z9H      -0.709867
     21 C1          55.7550     0.2690   -10.4450 c6         1 Z9H       0.328900
     22 O1          56.9500    -0.3990   -10.7300 oh         1 Z9H      -0.633800
     23 HO1         57.6140    -0.1300   -10.0840 ho         1 Z9H       0.430000
     24 H11         52.4500    -4.4970    -8.4280 h1         1 Z9H       0.020367
     25 H12         52.4660    -2.9630    -7.5430 h1         1 Z9H       0.020367
     26 H13         51.6420    -3.0790    -9.1100 h1         1 Z9H       0.020367
     27 H4          53.0380    -1.1770    -9.3310 h1         1 Z9H       0.051700
     28 H5          55.2710    -2.2930   -11.0870 h1         1 Z9H       0.072700
     29 H61         52.9800    -3.0400   -11.6560 h1         1 Z9H       0.034700
     30 H62         52.4610    -1.3510   -11.8000 h1         1 Z9H       0.034700
     31 H3          55.9280    -1.8720    -8.6550 h1         1 Z9H       0.058700
     32 H6          54.9520    -1.8440    -5.3210 h1         1 Z9H       0.020700
     33 H7          55.9040    -2.7100    -6.5350 h1         1 Z9H       0.020700
     34 H63         56.3220    -1.0430    -6.1030 h1         1 Z9H       0.020700
     35 H2          54.5320     0.8360    -8.7750 h1         1 Z9H       0.066700
     36 H1          55.8110     1.3210   -10.7500 h2         1 Z9H       0.093700
@<TRIPOS>BOND
     1     1     2 1   
     2     1     3 1   
     3     2    24 1   
     4     2    25 1   
     5     2    26 1   
     6     3     4 1   
     7     3    12 1   
     8     3    27 1   
     9     4     5 1   
    10     4     6 1   
    11     4    28 1   
    12     5    21 1   
    13     6     7 1   
    14     6    29 1   
    15     6    30 1   
    16     7     8 1   
    17     8     9 1   
    18     8    10 1   
    19     8    11 1   
    20    12    13 1   
    21    12    15 1   
    22    12    31 1   
    23    13    14 1   
    24    14    32 1   
    25    14    33 1   
    26    14    34 1   
    27    15    16 1   
    28    15    21 1   
    29    15    35 1   
    30    16    17 1   
    31    17    18 1   
    32    17    19 1   
    33    17    20 1   
    34    21    22 1   
    35    21    36 1   
    36    22    23 1   
@<TRIPOS>SUBSTRUCTURE
     1 Z9H         1 TEMP              0 ****  ****    0 ROOT
