@<TRIPOS>MOLECULE
Z9H
   36    36     1     0     0
SMALL
No Charge or Current Charge


@<TRIPOS>ATOM
      1 O4          53.6220    -3.3400    -9.4190 os         1 Z9H      -0.454000
      2 C7          52.9090    -3.7750    -8.2470 c3         1 Z9H       0.158900
      3 C4          53.8790    -1.9170    -9.5960 c6         1 Z9H       0.125300
      4 C5          54.4020    -1.7030   -11.0430 c6         1 Z9H       0.158300
      5 O5          54.7170    -0.3070   -11.2550 os         1 Z9H      -0.421000
      6 C6          53.3440    -2.1230   -12.1120 c3         1 Z9H       0.222600
      7 O6          53.9330    -2.0980   -13.4260 os         1 Z9H      -0.578700
      8 S1          52.9430    -2.5160   -14.6650 s6         1 Z9H       1.504300
      9 O7          53.7930    -2.3760   -15.8570 o          1 Z9H      -0.720200
     10 O8          51.8400    -1.5470   -14.5900 o          1 Z9H      -0.720200
     11 O12         52.5500    -3.8990   -14.3600 o          1 Z9H      -0.720200
     12 C3          54.8920    -1.3400    -8.5390 c6         1 Z9H       0.149300
     13 O3          54.2720    -1.3760    -7.2210 os         1 Z9H      -0.457000
     14 C8          55.1140    -1.2210    -6.0640 c3         1 Z9H       0.166900
     15 C2          55.3740     0.1190    -8.8970 c6         1 Z9H       0.138300
     16 O2          56.5420     0.4790    -8.1020 os         1 Z9H      -0.607700
     17 S2          56.7640     2.0540    -7.6770 s6         1 Z9H       1.498300
     18 O9          55.5390     2.4100    -6.9500 o          1 Z9H      -0.709867
     19 O10         56.9230     2.7450    -8.9630 o          1 Z9H      -0.709867
     20 O11         57.9780     2.0240    -6.8500 o          1 Z9H      -0.709867
     21 C1          55.7510     0.2210   -10.4120 c6         1 Z9H       0.375300
     22 O1          56.9700    -0.4790   -10.6780 oh         1 Z9H      -0.696000
     23 HO1         57.5220    -0.2730    -9.8900 ho         1 Z9H       0.469000
     24 H11         52.5850    -4.8170    -8.3690 h1         1 Z9H       0.020367
     25 H12         53.5460    -3.7330    -7.3550 h1         1 Z9H       0.020367
     26 H13         52.0160    -3.1590    -8.0790 h1         1 Z9H       0.020367
     27 H4          52.9260    -1.3770    -9.4960 h1         1 Z9H       0.051700
     28 H5          55.3020    -2.3140   -11.2000 h1         1 Z9H       0.072700
     29 H61         52.9870    -3.1340   -11.8740 h1         1 Z9H       0.034700
     30 H62         52.4880    -1.4370   -12.0440 h1         1 Z9H       0.034700
     31 H3          55.7700    -2.0020    -8.5290 h1         1 Z9H       0.058700
     32 H6          54.5570    -1.4880    -5.1570 h1         1 Z9H       0.020700
     33 H7          55.9930    -1.8750    -6.1280 h1         1 Z9H       0.020700
     34 H63         55.4490    -0.1850    -5.9490 h1         1 Z9H       0.020700
     35 H2          54.5450     0.8120    -8.6910 h1         1 Z9H       0.066700
     36 H1          55.8870     1.2860   -10.6620 h2         1 Z9H       0.093700
@<TRIPOS>BOND
     1     1     2 1   
     2     1     3 1   
     3     2    24 1   
     4     2    25 1   
     5     2    26 1   
     6     3     4 1   
     7     3    12 1   
     8     3    27 1   
     9     4     5 1   
    10     4     6 1   
    11     4    28 1   
    12     5    21 1   
    13     6     7 1   
    14     6    29 1   
    15     6    30 1   
    16     7     8 1   
    17     8     9 1   
    18     8    10 1   
    19     8    11 1   
    20    12    13 1   
    21    12    15 1   
    22    12    31 1   
    23    13    14 1   
    24    14    32 1   
    25    14    33 1   
    26    14    34 1   
    27    15    16 1   
    28    15    21 1   
    29    15    35 1   
    30    16    17 1   
    31    17    18 1   
    32    17    19 1   
    33    17    20 1   
    34    21    22 1   
    35    21    36 1   
    36    22    23 1   
@<TRIPOS>SUBSTRUCTURE
     1 Z9H         1 TEMP              0 ****  ****    0 ROOT
