@<TRIPOS>MOLECULE
Z9J
   36    36     1     0     0
SMALL
abcg2


@<TRIPOS>ATOM
      1 N           -4.9620     1.4250    -1.9950 n8         1 Z9J      -0.999200
      2 CA          -4.9240     0.3870    -0.9760 c3         1 Z9J       0.153800
      3 C2          -3.7680    -0.5600    -1.2540 c3         1 Z9J       0.064600
      4 S1          -3.6280    -1.9110    -0.0560 ss         1 Z9J      -0.467000
      5 C3          -3.0580    -1.0270     1.4350 c3         1 Z9J       0.128900
      6 C4          -1.7870    -0.2650     1.2150 ca         1 Z9J      -0.113300
      7 C5          -1.7900     1.1240     1.1690 ca         1 Z9J      -0.122000
      8 C6          -0.6100     1.8240     0.9420 ca         1 Z9J      -0.122000
      9 C7           0.5800     1.1420     0.7610 ca         1 Z9J      -0.066000
     10 C8           0.6040    -0.2530     0.8150 ca         1 Z9J      -0.053300
     11 C9           1.8950    -0.9860     0.6100 c3         1 Z9J       0.104900
     12 S2           2.2330    -1.0520    -1.1790 ss         1 Z9J      -0.452000
     13 C10          4.0020    -1.4770    -1.2210 c3         1 Z9J       0.104600
     14 C11          4.9050    -0.4780    -0.5120 c3         1 Z9J      -0.214400
     15 C            4.6820     0.9650    -1.0050 c          1 Z9J       0.725000
     16 OXT          4.3110     1.8080    -0.1600 o          1 Z9J      -0.735000
     17 O            4.8890     1.1640    -2.2180 o          1 Z9J      -0.735000
     18 C13         -0.5810    -0.9410     1.0290 ca         1 Z9J      -0.090000
     19 H           -5.7890     1.9930    -1.8670 hn         1 Z9J       0.392500
     20 H2          -4.1760     2.0510    -1.8650 hn         1 Z9J       0.392500
     21 HA3         -4.8400     0.7790     0.0460 h1         1 Z9J       0.028700
     22 HA2         -5.8580    -0.1770    -1.0160 h1         1 Z9J       0.028700
     23 H5          -3.9020    -1.0410    -2.2240 h1         1 Z9J       0.085200
     24 H6          -2.8190    -0.0190    -1.2930 h1         1 Z9J       0.085200
     25 H7          -3.8480    -0.3730     1.8050 h1         1 Z9J       0.062700
     26 H8          -2.9180    -1.8150     2.1780 h1         1 Z9J       0.062700
     27 H9          -2.7180     1.6650     1.3140 ha         1 Z9J       0.091000
     28 H10         -0.6240     2.9060     0.9080 ha         1 Z9J       0.110000
     29 H11          1.5020     1.6840     0.5790 ha         1 Z9J       0.168000
     30 H12          2.7090    -0.4540     1.1000 h1         1 Z9J       0.068200
     31 H13          1.8460    -1.9950     1.0210 h1         1 Z9J       0.068200
     32 H14          4.1420    -2.4840    -0.8250 h1         1 Z9J       0.046700
     33 H15          4.2420    -1.5120    -2.2850 h1         1 Z9J       0.046700
     34 H16          4.7710    -0.5480     0.5690 hc         1 Z9J       0.019700
     35 H17          5.9390    -0.7790    -0.7120 hc         1 Z9J       0.019700
     36 H19         -0.5680    -2.0260     1.0590 ha         1 Z9J       0.113000
@<TRIPOS>BOND
     1     1     2 1   
     2     1    19 1   
     3     1    20 1   
     4     2     3 1   
     5     2    21 1   
     6     2    22 1   
     7     3     4 1   
     8     3    23 1   
     9     3    24 1   
    10     4     5 1   
    11     5     6 1   
    12     5    25 1   
    13     5    26 1   
    14     6     7 ar  
    15     6    18 ar  
    16     7     8 ar  
    17     7    27 1   
    18     8     9 ar  
    19     8    28 1   
    20     9    10 ar  
    21     9    29 1   
    22    10    11 1   
    23    10    18 ar  
    24    11    12 1   
    25    11    30 1   
    26    11    31 1   
    27    12    13 1   
    28    13    14 1   
    29    13    32 1   
    30    13    33 1   
    31    14    15 1   
    32    14    34 1   
    33    14    35 1   
    34    15    16 1   
    35    15    17 1   
    36    18    36 1   
@<TRIPOS>SUBSTRUCTURE
     1 Z9J         1 TEMP              0 ****  ****    0 ROOT
