@<TRIPOS>MOLECULE
Z9J
   36    36     1     0     0
SMALL
No Charge or Current Charge


@<TRIPOS>ATOM
      1 N           -5.2330     1.3520    -1.9120 n8         1 Z9J      -0.999200
      2 CA          -5.0030     0.2430    -0.9590 c3         1 Z9J       0.153800
      3 C2          -3.7500    -0.5920    -1.3170 c3         1 Z9J       0.064600
      4 S1          -3.5290    -2.0390    -0.1690 ss         1 Z9J      -0.467000
      5 C3          -3.1030    -1.1770     1.4180 c3         1 Z9J       0.128900
      6 C4          -1.8840    -0.2780     1.2540 ca         1 Z9J      -0.113300
      7 C5          -2.0090     1.1200     1.3640 ca         1 Z9J      -0.122000
      8 C6          -0.8830     1.9450     1.2050 ca         1 Z9J      -0.122000
      9 C7           0.3750     1.3780     0.9380 ca         1 Z9J      -0.066000
     10 C8           0.5120    -0.0190     0.8290 ca         1 Z9J      -0.053300
     11 C9           1.8760    -0.6310     0.5440 c3         1 Z9J       0.104900
     12 S2           2.3490    -0.3880    -1.2310 ss         1 Z9J      -0.452000
     13 C10          3.9340    -1.3470    -1.3030 c3         1 Z9J       0.104600
     14 C11          5.0970    -0.6650    -0.5480 c3         1 Z9J      -0.214400
     15 C            5.5380     0.6160    -1.2710 c          1 Z9J       0.725000
     16 OXT          5.1030     1.6890    -0.8810 o          1 Z9J      -0.735000
     17 O            6.3210     0.5050    -2.2030 o          1 Z9J      -0.735000
     18 C13         -0.6200    -0.8410     0.9880 ca         1 Z9J      -0.090000
     19 H           -6.0590     1.8850    -1.6110 hn         1 Z9J       0.392500
     20 H2          -4.4680     2.0320    -1.8280 hn         1 Z9J       0.392500
     21 HA3         -4.8950     0.6670     0.0480 h1         1 Z9J       0.028700
     22 HA2         -5.8860    -0.4100    -0.9670 h1         1 Z9J       0.028700
     23 H5          -3.8560    -0.9730    -2.3410 h1         1 Z9J       0.085200
     24 H6          -2.8550     0.0430    -1.2850 h1         1 Z9J       0.085200
     25 H7          -3.9670    -0.5880     1.7530 h1         1 Z9J       0.062700
     26 H8          -2.8970    -1.9330     2.1860 h1         1 Z9J       0.062700
     27 H9          -2.9780     1.5690     1.5700 ha         1 Z9J       0.091000
     28 H10         -0.9850     3.0250     1.2890 ha         1 Z9J       0.110000
     29 H11          1.2430     2.0220     0.8130 ha         1 Z9J       0.168000
     30 H12          2.6270    -0.1600     1.1920 h1         1 Z9J       0.068200
     31 H13          1.8600    -1.7060     0.7690 h1         1 Z9J       0.068200
     32 H14          3.7550    -2.3410    -0.8730 h1         1 Z9J       0.046700
     33 H15          4.2150    -1.4840    -2.3550 h1         1 Z9J       0.046700
     34 H16          4.7530    -0.4520     0.4700 hc         1 Z9J       0.019700
     35 H17          5.9060    -1.4040    -0.5850 hc         1 Z9J       0.019700
     36 H19         -0.5210    -1.9210     0.8990 ha         1 Z9J       0.113000
@<TRIPOS>BOND
     1     1     2 1   
     2     1    19 1   
     3     1    20 1   
     4     2     3 1   
     5     2    21 1   
     6     2    22 1   
     7     3     4 1   
     8     3    23 1   
     9     3    24 1   
    10     4     5 1   
    11     5     6 1   
    12     5    25 1   
    13     5    26 1   
    14     6     7 ar  
    15     6    18 ar  
    16     7     8 ar  
    17     7    27 1   
    18     8     9 ar  
    19     8    28 1   
    20     9    10 ar  
    21     9    29 1   
    22    10    11 1   
    23    10    18 ar  
    24    11    12 1   
    25    11    30 1   
    26    11    31 1   
    27    12    13 1   
    28    13    14 1   
    29    13    32 1   
    30    13    33 1   
    31    14    15 1   
    32    14    34 1   
    33    14    35 1   
    34    15    16 1   
    35    15    17 1   
    36    18    36 1   
@<TRIPOS>SUBSTRUCTURE
     1 Z9J         1 TEMP              0 ****  ****    0 ROOT
