@<TRIPOS>MOLECULE
Z9K
   28    28     1     0     0
SMALL
bcc


@<TRIPOS>ATOM
      1 O4          66.1360    -1.7710   -14.3780 oh         1 Z9K      -0.566800
      2 C4          67.2210    -0.8910   -14.5620 c6         1 Z9K       0.135100
      3 C5          66.8570     0.1850   -15.5900 c6         1 Z9K       0.002100
      4 O5          67.2090    -0.2610   -16.8900 os         1 Z9K      -0.366600
      5 C6          65.3690     0.5920   -15.5080 c          1 Z9K       0.962600
      6 O10         65.0610     1.1430   -14.4340 o          1 Z9K      -0.834300
      7 O6          64.6460     0.3550   -16.4860 o          1 Z9K      -0.834300
      8 C3          68.4710    -1.6510   -15.0310 c6         1 Z9K       0.101100
      9 O3          69.1250    -2.1670   -13.8990 os         1 Z9K      -0.416600
     10 C7          69.7170    -3.4360   -14.0540 c3         1 Z9K       0.143700
     11 C2          69.3470    -0.7020   -15.8370 c6         1 Z9K       0.109100
     12 O2          70.5540    -1.3560   -16.2070 os         1 Z9K      -0.579500
     13 S1          71.9510    -0.4900   -16.1160 s6         1 Z9K       1.504300
     14 O7          71.7090     0.7070   -16.9440 o          1 Z9K      -0.715200
     15 O8          72.1400    -0.1840   -14.7000 o          1 Z9K      -0.715200
     16 O9          72.9060    -1.4360   -16.6780 o          1 Z9K      -0.715200
     17 C1          68.5810    -0.2820   -17.1100 c6         1 Z9K       0.324900
     18 O1          68.9790     0.9690   -17.5840 oh         1 Z9K      -0.653800
     19 HO1         69.9420     1.0450   -17.4670 ho         1 Z9K       0.457000
     20 H4          67.4750    -0.3810   -13.6230 h1         1 Z9K       0.040700
     21 H5          67.4370     1.0840   -15.3420 h1         1 Z9K       0.041700
     22 H3          68.1440    -2.4730   -15.6870 h1         1 Z9K       0.050700
     23 H51         70.0260    -3.7740   -13.0650 h1         1 Z9K       0.016033
     24 H52         69.0090    -4.1690   -14.4570 h1         1 Z9K       0.016033
     25 H53         70.5970    -3.4220   -14.7010 h1         1 Z9K       0.016033
     26 H2          69.5640     0.1800   -15.2190 h1         1 Z9K       0.063700
     27 H1          68.7490    -1.0600   -17.8700 h2         1 Z9K       0.045700
     28 HO4         66.3620    -2.3810   -13.6680 ho         1 Z9K       0.368000
@<TRIPOS>BOND
     1     1     2 1   
     2     1    28 1   
     3     2     3 1   
     4     2     8 1   
     5     2    20 1   
     6     3     4 1   
     7     3     5 1   
     8     3    21 1   
     9     4    17 1   
    10     5     6 1   
    11     5     7 1   
    12     8     9 1   
    13     8    11 1   
    14     8    22 1   
    15     9    10 1   
    16    10    23 1   
    17    10    24 1   
    18    10    25 1   
    19    11    12 1   
    20    11    17 1   
    21    11    26 1   
    22    12    13 1   
    23    13    14 1   
    24    13    15 1   
    25    13    16 1   
    26    17    18 1   
    27    17    27 1   
    28    18    19 1   
@<TRIPOS>SUBSTRUCTURE
     1 Z9K         1 TEMP              0 ****  ****    0 ROOT
