@<TRIPOS>MOLECULE
Z9K
   28    28     1     0     0
SMALL
No Charge or Current Charge


@<TRIPOS>ATOM
      1 O4          66.1340    -1.5720   -13.9320 oh         1 Z9K      -0.689000
      2 C4          67.1740    -0.7550   -14.4980 c6         1 Z9K       0.158300
      3 C5          66.6680     0.2150   -15.6170 c6         1 Z9K       0.025300
      4 O5          67.2540    -0.1620   -16.8990 os         1 Z9K      -0.413000
      5 C6          65.1030     0.3400   -15.6460 c          1 Z9K       0.752000
      6 O10         64.6590     1.3890   -15.1890 o          1 Z9K      -0.729000
      7 O6          64.5150    -0.1900   -16.5840 o          1 Z9K      -0.729000
      8 C3          68.3480    -1.6710   -14.9850 c6         1 Z9K       0.124300
      9 O3          68.8560    -2.3910   -13.8250 os         1 Z9K      -0.463000
     10 C7          69.7930    -3.4630   -14.0440 c3         1 Z9K       0.166900
     11 C2          69.4020    -0.7830   -15.7330 c6         1 Z9K       0.132300
     12 O2          70.5610    -1.5260   -16.1990 os         1 Z9K      -0.602700
     13 S1          71.9960    -0.7330   -16.3480 s6         1 Z9K       1.504300
     14 O7          71.6320     0.5570   -16.9550 o          1 Z9K      -0.715200
     15 O8          72.4850    -0.6290   -14.9680 o          1 Z9K      -0.715200
     16 O9          72.7950    -1.6120   -17.2120 o          1 Z9K      -0.715200
     17 C1          68.6930    -0.0840   -16.9590 c6         1 Z9K       0.371300
     18 O1          69.0870     1.2810   -17.0750 oh         1 Z9K      -0.716000
     19 HO1         70.0830     1.2180   -17.0950 ho         1 Z9K       0.496000
     20 H4          67.5780    -0.1150   -13.6990 h1         1 Z9K       0.040700
     21 H5          67.0410     1.2200   -15.3710 h1         1 Z9K       0.041700
     22 H3          67.9460    -2.4070   -15.6960 h1         1 Z9K       0.050700
     23 H51         69.8950    -4.0630   -13.1310 h1         1 Z9K       0.016033
     24 H52         69.4500    -4.1250   -14.8500 h1         1 Z9K       0.016033
     25 H53         70.7870    -3.0780   -14.2960 h1         1 Z9K       0.016033
     26 H2          69.7350    -0.0150   -15.0180 h1         1 Z9K       0.063700
     27 H1          69.0070    -0.6130   -17.8730 h2         1 Z9K       0.045700
     28 HO4         66.6070    -2.2600   -13.4090 ho         1 Z9K       0.467000
@<TRIPOS>BOND
     1     1     2 1   
     2     1    28 1   
     3     2     3 1   
     4     2     8 1   
     5     2    20 1   
     6     3     4 1   
     7     3     5 1   
     8     3    21 1   
     9     4    17 1   
    10     5     6 1   
    11     5     7 1   
    12     8     9 1   
    13     8    11 1   
    14     8    22 1   
    15     9    10 1   
    16    10    23 1   
    17    10    24 1   
    18    10    25 1   
    19    11    12 1   
    20    11    17 1   
    21    11    26 1   
    22    12    13 1   
    23    13    14 1   
    24    13    15 1   
    25    13    16 1   
    26    17    18 1   
    27    17    27 1   
    28    18    19 1   
@<TRIPOS>SUBSTRUCTURE
     1 Z9K         1 TEMP              0 ****  ****    0 ROOT
