@<TRIPOS>MOLECULE
Z9L
   36    36     1     0     0
SMALL
abcg2


@<TRIPOS>ATOM
      1 O4          69.2100     1.1140   -17.9010 oh         1 Z9L      -0.774000
      2 C4          68.6370     1.2960   -19.1680 c6         1 Z9L       0.134300
      3 C5          69.7160     0.9250   -20.1910 c6         1 Z9L       0.173300
      4 O5          69.2800     1.1790   -21.5140 os         1 Z9L      -0.472000
      5 C6          70.1380    -0.5280   -20.1200 c3         1 Z9L       0.223600
      6 O6          69.0030    -1.3550   -20.3160 os         1 Z9L      -0.571700
      7 S1          69.1750    -2.9680   -20.0300 s6         1 Z9L       1.507300
      8 O7          69.6300    -3.0750   -18.6420 o          1 Z9L      -0.728200
      9 O11         70.1590    -3.4380   -21.0090 o          1 Z9L      -0.728200
     10 O15         67.8090    -3.4290   -20.2640 o          1 Z9L      -0.728200
     11 C3          68.1540     2.7310   -19.4030 c6         1 Z9L       0.180300
     12 O3          66.9600     2.9770   -18.6660 os         1 Z9L      -0.576700
     13 S2          67.0200     3.7220   -17.2070 s6         1 Z9L       1.513300
     14 O8          67.6400     2.7310   -16.3040 o          1 Z9L      -0.721867
     15 O9          65.6040     3.9460   -16.9490 o          1 Z9L      -0.721867
     16 O10         67.8230     4.9280   -17.3920 o          1 Z9L      -0.721867
     17 C2          67.7890     2.9340   -20.8660 c6         1 Z9L       0.219300
     18 O2          67.4730     4.2940   -21.0730 os         1 Z9L      -0.562700
     19 S3          66.1260     4.6500   -21.9600 s6         1 Z9L       1.505300
     20 O12         64.9890     4.2400   -21.1360 o          1 Z9L      -0.722867
     21 O13         66.2640     3.8800   -23.1990 o          1 Z9L      -0.722867
     22 O14         66.2830     6.0930   -22.1110 o          1 Z9L      -0.722867
     23 C1          68.9410     2.5130   -21.7740 c6         1 Z9L       0.343300
     24 O1          69.9950     3.3890   -21.5690 os         1 Z9L      -0.446000
     25 C7          71.0380     3.2890   -22.5130 c3         1 Z9L       0.159900
     26 H4          67.7670     0.6380   -19.3140 h1         1 Z9L       0.074700
     27 H5          70.6150     1.5130   -19.9610 h1         1 Z9L       0.024700
     28 H61         70.8940    -0.7130   -20.8900 h1         1 Z9L       0.027700
     29 H62         70.6020    -0.7090   -19.1480 h1         1 Z9L       0.027700
     30 H3          68.9440     3.4360   -19.1170 h1         1 Z9L       0.066700
     31 H2          66.9400     2.2790   -21.0990 h1         1 Z9L       0.077700
     32 H1          68.6170     2.5280   -22.8220 h2         1 Z9L       0.078700
     33 H71         71.7080     4.1320   -22.3490 h1         1 Z9L       0.007367
     34 H72         71.6140     2.3660   -22.4090 h1         1 Z9L       0.007367
     35 H73         70.6580     3.3440   -23.5390 h1         1 Z9L       0.007367
     36 HO4         68.6590     1.5570   -17.2310 ho         1 Z9L       0.561000
@<TRIPOS>BOND
     1     1     2 1   
     2     1    36 1   
     3     2     3 1   
     4     2    11 1   
     5     2    26 1   
     6     3     4 1   
     7     3     5 1   
     8     3    27 1   
     9     4    23 1   
    10     5     6 1   
    11     5    28 1   
    12     5    29 1   
    13     6     7 1   
    14     7     8 1   
    15     7     9 1   
    16     7    10 1   
    17    11    12 1   
    18    11    17 1   
    19    11    30 1   
    20    12    13 1   
    21    13    14 1   
    22    13    15 1   
    23    13    16 1   
    24    17    18 1   
    25    17    23 1   
    26    17    31 1   
    27    18    19 1   
    28    19    20 1   
    29    19    21 1   
    30    19    22 1   
    31    23    24 1   
    32    23    32 1   
    33    24    25 1   
    34    25    33 1   
    35    25    34 1   
    36    25    35 1   
@<TRIPOS>SUBSTRUCTURE
     1 Z9L         1 TEMP              0 ****  ****    0 ROOT
