@<TRIPOS>MOLECULE
Z9L
   36    36     1     0     0
SMALL
No Charge or Current Charge


@<TRIPOS>ATOM
      1 O4          68.9680     1.0550   -17.7270 oh         1 Z9L      -0.774000
      2 C4          68.5330     1.2860   -19.0920 c6         1 Z9L       0.134300
      3 C5          69.6580     0.9010   -20.1060 c6         1 Z9L       0.173300
      4 O5          69.2480     1.1820   -21.4700 os         1 Z9L      -0.472000
      5 C6          70.0740    -0.6050   -20.0340 c3         1 Z9L       0.223600
      6 O6          68.9420    -1.4630   -20.2780 os         1 Z9L      -0.571700
      7 S1          69.2530    -3.0740   -20.2910 s6         1 Z9L       1.507300
      8 O7          69.8250    -3.3450   -18.9630 o          1 Z9L      -0.728200
      9 O11         70.2020    -3.2520   -21.4000 o          1 Z9L      -0.728200
     10 O15         67.9350    -3.6850   -20.5180 o          1 Z9L      -0.728200
     11 C3          68.0750     2.7740   -19.3170 c6         1 Z9L       0.180300
     12 O3          66.9470     3.0740   -18.4500 os         1 Z9L      -0.576700
     13 S2          67.2070     3.9440   -17.0860 s6         1 Z9L       1.513300
     14 O8          68.1600     3.1030   -16.3500 o          1 Z9L      -0.721867
     15 O9          65.8790     4.0470   -16.4660 o          1 Z9L      -0.721867
     16 O10         67.7660     5.2180   -17.5560 o          1 Z9L      -0.721867
     17 C2          67.6660     2.9580   -20.8170 c6         1 Z9L       0.219300
     18 O2          67.2500     4.3240   -21.0820 os         1 Z9L      -0.562700
     19 S3          66.0560     4.5670   -22.1800 s6         1 Z9L       1.505300
     20 O12         64.8740     3.9400   -21.5730 o          1 Z9L      -0.722867
     21 O13         66.5370     3.8860   -23.3900 o          1 Z9L      -0.722867
     22 O14         65.9740     6.0300   -22.2990 o          1 Z9L      -0.722867
     23 C1          68.8820     2.5550   -21.7220 c6         1 Z9L       0.343300
     24 O1          70.0350     3.3970   -21.4980 os         1 Z9L      -0.446000
     25 C7          71.1270     3.2360   -22.4160 c3         1 Z9L       0.159900
     26 H4          67.6640     0.6450   -19.3080 h1         1 Z9L       0.074700
     27 H5          70.5550     1.4980   -19.8850 h1         1 Z9L       0.024700
     28 H61         70.8640    -0.7720   -20.7790 h1         1 Z9L       0.027700
     29 H62         70.5050    -0.7970   -19.0430 h1         1 Z9L       0.027700
     30 H3          68.9130     3.4550   -19.1030 h1         1 Z9L       0.066700
     31 H2          66.8320     2.2700   -21.0240 h1         1 Z9L       0.077700
     32 H1          68.5770     2.6460   -22.7750 h2         1 Z9L       0.078700
     33 H71         71.9320     3.9410   -22.1750 h1         1 Z9L       0.007367
     34 H72         71.5360     2.2190   -22.3640 h1         1 Z9L       0.007367
     35 H73         70.7990     3.4280   -23.4460 h1         1 Z9L       0.007367
     36 HO4         68.6240     1.8250   -17.1730 ho         1 Z9L       0.561000
@<TRIPOS>BOND
     1     1     2 1   
     2     1    36 1   
     3     2     3 1   
     4     2    11 1   
     5     2    26 1   
     6     3     4 1   
     7     3     5 1   
     8     3    27 1   
     9     4    23 1   
    10     5     6 1   
    11     5    28 1   
    12     5    29 1   
    13     6     7 1   
    14     7     8 1   
    15     7     9 1   
    16     7    10 1   
    17    11    12 1   
    18    11    17 1   
    19    11    30 1   
    20    12    13 1   
    21    13    14 1   
    22    13    15 1   
    23    13    16 1   
    24    17    18 1   
    25    17    23 1   
    26    17    31 1   
    27    18    19 1   
    28    19    20 1   
    29    19    21 1   
    30    19    22 1   
    31    23    24 1   
    32    23    32 1   
    33    24    25 1   
    34    25    33 1   
    35    25    34 1   
    36    25    35 1   
@<TRIPOS>SUBSTRUCTURE
     1 Z9L         1 TEMP              0 ****  ****    0 ROOT
