@<TRIPOS>MOLECULE
Z9M
   28    28     1     0     0
SMALL
abcg2


@<TRIPOS>ATOM
      1 N2         -71.4160   -39.0980     6.2410 n8         1 Z9M      -1.033200
      2 P1         -73.2760   -35.3340     1.9940 p5         1 Z9M       1.285900
      3 O6         -68.1460   -34.3500     3.6010 oh         1 Z9M      -0.739000
      4 O1         -69.1040   -37.7080     6.8370 oh         1 Z9M      -0.679000
      5 O3         -73.2100   -37.7120     4.4020 oh         1 Z9M      -0.805000
      6 C1         -69.7070   -37.5170     5.6030 c6         1 Z9M       0.405300
      7 O4         -71.7560   -35.9770     2.4320 os         1 Z9M      -0.590400
      8 C2         -71.2070   -37.7770     5.6710 c6         1 Z9M       0.068500
      9 O5         -69.4680   -36.1920     5.2360 os         1 Z9M      -0.471000
     10 C3         -71.8320   -37.5300     4.3000 c6         1 Z9M       0.164300
     11 O9         -73.1780   -35.3080     0.4830 o          1 Z9M      -0.886833
     12 C4         -71.4360   -36.1350     3.7880 c6         1 Z9M       0.187300
     13 O7         -74.2750   -36.3840     2.5420 o          1 Z9M      -0.886833
     14 C5         -69.9220   -35.9070     3.9270 c6         1 Z9M       0.159300
     15 O8         -73.3680   -33.9900     2.6960 o          1 Z9M      -0.886833
     16 C6         -69.5510   -34.4730     3.6170 c3         1 Z9M       0.158600
     17 HN21       -72.3900   -39.2180     6.4860 hn         1 Z9M       0.394500
     18 HN22       -71.2090   -39.8140     5.5530 hn         1 Z9M       0.394500
     19 HO1        -69.6470   -38.3760     7.2840 ho         1 Z9M       0.462000
     20 HO3        -73.6720   -37.2090     3.6460 ho         1 Z9M       0.560000
     21 H1         -69.2570   -38.1890     4.8430 h2         1 Z9M       0.004700
     22 H2         -71.6290   -37.0510     6.3780 h1         1 Z9M       0.072700
     23 H3         -71.3780   -38.2600     3.5980 h1         1 Z9M      -0.005300
     24 H4         -71.9510   -35.3860     4.4130 h1         1 Z9M       0.046700
     25 H5         -69.4140   -36.5700     3.2060 h1         1 Z9M       0.038700
     26 H61        -70.0070   -33.8190     4.3730 h1         1 Z9M       0.053700
     27 H62        -69.9920   -34.2070     2.6520 h1         1 Z9M       0.053700
     28 HO6        -67.9300   -33.4410     3.3740 ho         1 Z9M       0.473000
@<TRIPOS>BOND
     1     1     8 1   
     2     1    17 1   
     3     1    18 1   
     4     2     7 1   
     5     2    11 1   
     6     2    13 1   
     7     2    15 1   
     8     3    16 1   
     9     3    28 1   
    10     4     6 1   
    11     4    19 1   
    12     5    10 1   
    13     5    20 1   
    14     6     8 1   
    15     6     9 1   
    16     6    21 1   
    17     7    12 1   
    18     8    10 1   
    19     8    22 1   
    20     9    14 1   
    21    10    12 1   
    22    10    23 1   
    23    12    14 1   
    24    12    24 1   
    25    14    16 1   
    26    14    25 1   
    27    16    26 1   
    28    16    27 1   
@<TRIPOS>SUBSTRUCTURE
     1 Z9M         1 TEMP              0 ****  ****    0 ROOT
