@<TRIPOS>MOLECULE
Z9M
   28    28     1     0     0
SMALL
No Charge or Current Charge


@<TRIPOS>ATOM
      1 N2         -71.5270   -39.1450     6.3120 n8         1 Z9M      -1.033200
      2 P1         -73.3020   -35.3410     2.0850 p5         1 Z9M       1.285900
      3 O6         -68.0460   -34.1910     3.6430 oh         1 Z9M      -0.739000
      4 O1         -69.1310   -37.7120     6.9550 oh         1 Z9M      -0.679000
      5 O3         -73.2200   -37.8420     4.3020 oh         1 Z9M      -0.805000
      6 C1         -69.6570   -37.5350     5.6550 c6         1 Z9M       0.405300
      7 O4         -71.8370   -35.9220     2.3930 os         1 Z9M      -0.590400
      8 C2         -71.1930   -37.8040     5.7110 c6         1 Z9M       0.068500
      9 O5         -69.4140   -36.1860     5.2470 os         1 Z9M      -0.471000
     10 C3         -71.7970   -37.5900     4.2840 c6         1 Z9M       0.164300
     11 O9         -73.4740   -35.2270     0.6130 o          1 Z9M      -0.886833
     12 C4         -71.4100   -36.1520     3.7590 c6         1 Z9M       0.187300
     13 O7         -74.2990   -36.2920     2.6400 o          1 Z9M      -0.886833
     14 C5         -69.8680   -35.9160     3.8920 c6         1 Z9M       0.159300
     15 O8         -73.4470   -34.0040     2.7190 o          1 Z9M      -0.886833
     16 C6         -69.4620   -34.4520     3.5100 c3         1 Z9M       0.158600
     17 HN21       -72.5500   -39.2440     6.2460 hn         1 Z9M       0.394500
     18 HN22       -71.2030   -39.8810     5.6720 hn         1 Z9M       0.394500
     19 HO1        -69.7470   -38.3890     7.3190 ho         1 Z9M       0.462000
     20 HO3        -73.6350   -37.2220     3.6030 ho         1 Z9M       0.560000
     21 H1         -69.1710   -38.2340     4.9580 h2         1 Z9M       0.004700
     22 H2         -71.6340   -37.0420     6.3720 h1         1 Z9M       0.072700
     23 H3         -71.3230   -38.3190     3.6100 h1         1 Z9M      -0.005300
     24 H4         -71.9080   -35.4150     4.4070 h1         1 Z9M       0.046700
     25 H5         -69.3450   -36.6020     3.2090 h1         1 Z9M       0.038700
     26 H61        -70.0370   -33.7660     4.1480 h1         1 Z9M       0.053700
     27 H62        -69.7810   -34.2690     2.4740 h1         1 Z9M       0.053700
     28 HO6        -67.9090   -33.2370     3.4380 ho         1 Z9M       0.473000
@<TRIPOS>BOND
     1     1     8 1   
     2     1    17 1   
     3     1    18 1   
     4     2     7 1   
     5     2    11 1   
     6     2    13 1   
     7     2    15 1   
     8     3    16 1   
     9     3    28 1   
    10     4     6 1   
    11     4    19 1   
    12     5    10 1   
    13     5    20 1   
    14     6     8 1   
    15     6     9 1   
    16     6    21 1   
    17     7    12 1   
    18     8    10 1   
    19     8    22 1   
    20     9    14 1   
    21    10    12 1   
    22    10    23 1   
    23    12    14 1   
    24    12    24 1   
    25    14    16 1   
    26    14    25 1   
    27    16    26 1   
    28    16    27 1   
@<TRIPOS>SUBSTRUCTURE
     1 Z9M         1 TEMP              0 ****  ****    0 ROOT
