@<TRIPOS>MOLECULE
Z9N
   24    24     1     0     0
SMALL
bcc


@<TRIPOS>ATOM
      1 O2          17.0060     5.2530    -2.5990 oh         1 Z9N      -0.549800
      2 C1          15.7030     6.7990    -1.4150 c3         1 Z9N       0.159400
      3 O1          14.5820     6.2550    -2.0590 oh         1 Z9N      -0.564800
      4 C2          16.9710     6.5900    -2.2450 c5         1 Z9N       0.358600
      5 O5          18.0620     6.9000    -1.3880 os         1 Z9N      -0.424600
      6 C3          17.1480     7.5510    -3.4360 c5         1 Z9N       0.098100
      7 O3          15.9400     7.8300    -4.0760 oh         1 Z9N      -0.554800
      8 C4          17.8430     8.7440    -2.8080 c5         1 Z9N       0.067100
      9 O4          18.4810     9.5140    -3.7890 oh         1 Z9N      -0.585800
     10 C5          18.7810     8.0460    -1.8250 c5         1 Z9N       0.114100
     11 C6          19.1670     8.9070    -0.6480 c3         1 Z9N       0.143400
     12 O6          20.0710     8.2020     0.1680 oh         1 Z9N      -0.577800
     13 HO2         17.7450     5.0960    -3.1990 ho         1 Z9N       0.410000
     14 H11         15.5880     7.8720    -1.2150 h1         1 Z9N       0.028700
     15 H12         15.8800     6.3190    -0.4420 h1         1 Z9N       0.028700
     16 HO1         13.8240     6.3860    -1.4820 ho         1 Z9N       0.401000
     17 H3          17.8680     7.0900    -4.1340 h1         1 Z9N       0.049700
     18 HO3         16.1210     8.4410    -4.7970 ho         1 Z9N       0.415000
     19 H4          17.1040     9.3430    -2.2540 h1         1 Z9N       0.052700
     20 HO4         18.6830    10.3800    -3.4240 ho         1 Z9N       0.414000
     21 H5          19.6900     7.7370    -2.3620 h1         1 Z9N       0.073700
     22 H61         19.6100     9.8340    -1.0400 h1         1 Z9N       0.019700
     23 H62         18.2560     9.1920    -0.1040 h1         1 Z9N       0.019700
     24 HO6         20.3060     8.7650     0.9110 ho         1 Z9N       0.405000
@<TRIPOS>BOND
     1     1     4 1   
     2     1    13 1   
     3     2     3 1   
     4     2     4 1   
     5     2    14 1   
     6     2    15 1   
     7     3    16 1   
     8     4     5 1   
     9     4     6 1   
    10     5    10 1   
    11     6     7 1   
    12     6     8 1   
    13     6    17 1   
    14     7    18 1   
    15     8     9 1   
    16     8    10 1   
    17     8    19 1   
    18     9    20 1   
    19    10    11 1   
    20    10    21 1   
    21    11    12 1   
    22    11    22 1   
    23    11    23 1   
    24    12    24 1   
@<TRIPOS>SUBSTRUCTURE
     1 Z9N         1 TEMP              0 ****  ****    0 ROOT
