@<TRIPOS>MOLECULE
Z9N
   24    24     1     0     0
SMALL
No Charge or Current Charge


@<TRIPOS>ATOM
      1 O2          17.5610     5.5720    -2.5470 oh         1 Z9N      -0.672000
      2 C1          15.4450     6.3720    -1.6030 c3         1 Z9N       0.182600
      3 O1          14.6330     5.5940    -2.5170 oh         1 Z9N      -0.687000
      4 C2          16.8600     6.7600    -2.1840 c5         1 Z9N       0.405000
      5 O5          17.6370     7.3730    -1.1430 os         1 Z9N      -0.471000
      6 C3          16.8760     7.8330    -3.3690 c5         1 Z9N       0.121300
      7 O3          15.6270     8.4900    -3.6660 oh         1 Z9N      -0.677000
      8 C4          17.9080     8.9020    -2.8540 c5         1 Z9N       0.090300
      9 O4          18.6960     9.4650    -3.9170 oh         1 Z9N      -0.708000
     10 C5          18.7080     8.0930    -1.7960 c5         1 Z9N       0.137300
     11 C6          19.5030     8.9530    -0.7730 c3         1 Z9N       0.166600
     12 O6          20.3120     8.1300     0.0880 oh         1 Z9N      -0.700000
     13 HO2         17.7500     5.1270    -1.6940 ho         1 Z9N       0.509000
     14 H11         14.9200     7.2970    -1.3300 h1         1 Z9N       0.028700
     15 H12         15.5970     5.8080    -0.6730 h1         1 Z9N       0.028700
     16 HO1         13.7540     5.4770    -2.0890 ho         1 Z9N       0.500000
     17 H3          17.2580     7.3490    -4.2790 h1         1 Z9N       0.049700
     18 HO3         15.8210     9.1490    -4.3730 ho         1 Z9N       0.514000
     19 H4          17.3670     9.7070    -2.3350 h1         1 Z9N       0.052700
     20 HO4         19.1320    10.2800    -3.5710 ho         1 Z9N       0.513000
     21 H5          19.3970     7.3850    -2.2770 h1         1 Z9N       0.073700
     22 H61         20.1440     9.6520    -1.3260 h1         1 Z9N       0.019700
     23 H62         18.7950     9.5490    -0.1810 h1         1 Z9N       0.019700
     24 HO6         20.7300     8.7310     0.7480 ho         1 Z9N       0.504000
@<TRIPOS>BOND
     1     1     4 1   
     2     1    13 1   
     3     2     3 1   
     4     2     4 1   
     5     2    14 1   
     6     2    15 1   
     7     3    16 1   
     8     4     5 1   
     9     4     6 1   
    10     5    10 1   
    11     6     7 1   
    12     6     8 1   
    13     6    17 1   
    14     7    18 1   
    15     8     9 1   
    16     8    10 1   
    17     8    19 1   
    18     9    20 1   
    19    10    11 1   
    20    10    21 1   
    21    11    12 1   
    22    11    22 1   
    23    11    23 1   
    24    12    24 1   
@<TRIPOS>SUBSTRUCTURE
     1 Z9N         1 TEMP              0 ****  ****    0 ROOT
