@<TRIPOS>MOLECULE
Z9W
   29    29     1     0     0
SMALL
No Charge or Current Charge


@<TRIPOS>ATOM
      1 C1         -18.6120    84.0820   -20.5490 c6         1 Z9W       0.386300
      2 C2         -17.2220    83.3880   -20.3480 c6         1 Z9W       0.041700
      3 C7         -15.6080    85.3520   -20.1310 c          1 Z9W       0.611100
      4 C8         -14.3270    85.9450   -20.6960 c3         1 Z9W      -0.176100
      5 C3         -17.2290    82.0570   -21.1570 c6         1 Z9W       0.167300
      6 C4         -18.4350    81.1600   -20.7580 c6         1 Z9W       0.098300
      7 C5         -19.7490    81.9810   -20.9470 c6         1 Z9W       0.155300
      8 C6         -21.0180    81.2290   -20.4690 c3         1 Z9W      -0.090100
      9 O1         -18.7470    85.2210   -19.7080 oh         1 Z9W      -0.632000
     10 N2         -16.0720    84.2310   -20.7730 ns         1 Z9W      -0.492900
     11 O7         -16.2070    85.8400   -19.1850 o          1 Z9W      -0.620100
     12 O3         -16.0070    81.3280   -20.9730 oh         1 Z9W      -0.649000
     13 O4         -18.4260    79.9470   -21.5460 oh         1 Z9W      -0.726000
     14 O5         -19.6750    83.1940   -20.1680 os         1 Z9W      -0.478000
     15 H1         -18.7300    84.3780   -21.6030 h2         1 Z9W       0.055700
     16 HO1        -17.8180    85.4920   -19.4880 ho         1 Z9W       0.477000
     17 H2         -17.1040    83.1470   -19.2810 h1         1 Z9W       0.100700
     18 HN2        -15.4950    83.8870   -21.5320 hn         1 Z9W       0.318500
     19 H81        -14.0070    86.8460   -20.1600 hc         1 Z9W       0.062367
     20 H82        -13.5470    85.1750   -20.6970 hc         1 Z9W       0.062367
     21 H83        -14.4650    86.1380   -21.7660 hc         1 Z9W       0.062367
     22 H3         -17.3390    82.3110   -22.2220 h1         1 Z9W       0.038700
     23 HO3        -16.2270    80.4120   -21.2630 ho         1 Z9W       0.461000
     24 H4         -18.3400    80.9120   -19.6890 h1         1 Z9W       0.060700
     25 HO4        -19.1000    79.3370   -21.1610 ho         1 Z9W       0.515000
     26 H5         -19.8770    82.2470   -22.0070 h1         1 Z9W       0.045700
     27 H61        -21.2030    80.3340   -21.0750 hc         1 Z9W       0.048367
     28 H62        -20.9260    80.9150   -19.4220 hc         1 Z9W       0.048367
     29 H63        -21.9050    81.8670   -20.5520 hc         1 Z9W       0.048367
@<TRIPOS>BOND
     1     1     2 1   
     2     1     9 1   
     3     1    14 1   
     4     1    15 1   
     5     2     5 1   
     6     2    10 1   
     7     2    17 1   
     8     3     4 1   
     9     3    10 1   
    10     3    11 2   
    11     4    19 1   
    12     4    20 1   
    13     4    21 1   
    14     5     6 1   
    15     5    12 1   
    16     5    22 1   
    17     6     7 1   
    18     6    13 1   
    19     6    24 1   
    20     7     8 1   
    21     7    14 1   
    22     7    26 1   
    23     8    27 1   
    24     8    28 1   
    25     8    29 1   
    26     9    16 1   
    27    10    18 1   
    28    12    23 1   
    29    13    25 1   
@<TRIPOS>SUBSTRUCTURE
     1 Z9W         1 TEMP              0 ****  ****    0 ROOT
