@<TRIPOS>MOLECULE
Z9W
   29    29     1     0     0
SMALL
abcg2


@<TRIPOS>ATOM
      1 C1         -18.6100    84.0870   -20.6300 c6         1 Z9W       0.386300
      2 C2         -17.2530    83.4000   -20.4250 c6         1 Z9W       0.041700
      3 C7         -15.5230    85.1080   -20.0840 c          1 Z9W       0.611100
      4 C8         -14.3590    85.8230   -20.7180 c3         1 Z9W      -0.176100
      5 C3         -17.2420    82.0630   -21.1570 c6         1 Z9W       0.167300
      6 C4         -18.4490    81.2310   -20.7350 c6         1 Z9W       0.098300
      7 C5         -19.7380    82.0390   -20.9090 c6         1 Z9W       0.155300
      8 C6         -20.9670    81.2980   -20.4270 c3         1 Z9W      -0.090100
      9 O1         -18.7090    85.2960   -19.9780 oh         1 Z9W      -0.632000
     10 N2         -16.1630    84.2300   -20.8760 ns         1 Z9W      -0.492900
     11 O7         -15.8420    85.3020   -18.9160 o          1 Z9W      -0.620100
     12 O3         -16.0290    81.4180   -20.8740 oh         1 Z9W      -0.649000
     13 O4         -18.4450    80.0700   -21.5350 oh         1 Z9W      -0.726000
     14 O5         -19.6330    83.2410   -20.1670 os         1 Z9W      -0.478000
     15 H1         -18.7590    84.2860   -21.7040 h2         1 Z9W       0.055700
     16 HO1        -18.1960    85.2740   -19.1600 ho         1 Z9W       0.477000
     17 H2         -17.1260    83.2130   -19.3530 h1         1 Z9W       0.100700
     18 HN2        -15.8650    84.1420   -21.8340 hn         1 Z9W       0.318500
     19 H81        -14.4290    86.8900   -20.5160 hc         1 Z9W       0.062367
     20 H82        -13.4330    85.4640   -20.2670 hc         1 Z9W       0.062367
     21 H83        -14.2930    85.6740   -21.7940 hc         1 Z9W       0.062367
     22 H3         -17.3360    82.2590   -22.2400 h1         1 Z9W       0.038700
     23 HO3        -16.0170    80.5850   -21.3580 ho         1 Z9W       0.461000
     24 H4         -18.3390    80.9800   -19.6690 h1         1 Z9W       0.060700
     25 HO4        -18.9470    79.3810   -21.0900 ho         1 Z9W       0.515000
     26 H5         -19.8570    82.2750   -21.9790 h1         1 Z9W       0.045700
     27 H61        -21.1370    80.4030   -21.0240 hc         1 Z9W       0.048367
     28 H62        -20.8670    80.9990   -19.3830 hc         1 Z9W       0.048367
     29 H63        -21.8550    81.9220   -20.5230 hc         1 Z9W       0.048367
@<TRIPOS>BOND
     1     1     2 1   
     2     1     9 1   
     3     1    14 1   
     4     1    15 1   
     5     2     5 1   
     6     2    10 1   
     7     2    17 1   
     8     3     4 1   
     9     3    10 1   
    10     3    11 2   
    11     4    19 1   
    12     4    20 1   
    13     4    21 1   
    14     5     6 1   
    15     5    12 1   
    16     5    22 1   
    17     6     7 1   
    18     6    13 1   
    19     6    24 1   
    20     7     8 1   
    21     7    14 1   
    22     7    26 1   
    23     8    27 1   
    24     8    28 1   
    25     8    29 1   
    26     9    16 1   
    27    10    18 1   
    28    12    23 1   
    29    13    25 1   
@<TRIPOS>SUBSTRUCTURE
     1 Z9W         1 TEMP              0 ****  ****    0 ROOT
