@<TRIPOS>MOLECULE
Z9Z
  100   103     1     0     0
SMALL
abcg2


@<TRIPOS>ATOM
      1 O30          5.8030     0.0580     1.8640 o          1 Z9Z      -0.535000
      2 C29          5.6840    -0.3200     0.7190 c          1 Z9Z       0.637100
      3 O31          6.5300    -1.1780     0.1300 os         1 Z9Z      -0.463100
      4 C32          7.6690    -1.5750     0.8950 c3         1 Z9Z       0.234900
      5 C33          8.5510    -2.3620    -0.0210 ca         1 Z9Z      -0.152300
      6 C38          9.5690    -1.7360    -0.7330 ca         1 Z9Z       0.356900
      7 N37         10.3710    -2.3620    -1.5830 nb         1 Z9Z      -0.669000
      8 C36         10.1870    -3.6650    -1.7630 ca         1 Z9Z       0.344900
      9 C35          9.2050    -4.3920    -1.1050 ca         1 Z9Z      -0.169000
     10 C34          8.3730    -3.7250    -0.2200 ca         1 Z9Z      -0.049000
     11 N28          4.6890     0.0200    -0.1260 ns         1 Z9Z      -0.487900
     12 C20          3.8350     1.1680     0.1010 c3         1 Z9Z       0.117700
     13 C21          4.3720     2.4020    -0.6460 c3         1 Z9Z      -0.056100
     14 C22          5.8080     2.6870    -0.3100 ca         1 Z9Z      -0.087300
     15 C27          6.8390     2.1300    -1.0640 ca         1 Z9Z      -0.100000
     16 C26          8.1670     2.3200    -0.7060 ca         1 Z9Z      -0.108000
     17 C25          8.4850     3.0780     0.4120 ca         1 Z9Z      -0.108000
     18 C24          7.4660     3.6510     1.1630 ca         1 Z9Z      -0.108000
     19 C23          6.1410     3.4520     0.8040 ca         1 Z9Z      -0.100000
     20 C19          2.4000     0.8580    -0.3080 c3         1 Z9Z      -0.080400
     21 C18          1.7680    -0.2570     0.5130 c3         1 Z9Z      -0.080400
     22 C17          0.3200    -0.5350     0.1290 c3         1 Z9Z       0.102700
     23 C39         -0.2440    -1.7550     0.8870 c3         1 Z9Z      -0.052100
     24 C40         -1.7150    -1.9190     0.6350 ca         1 Z9Z      -0.086300
     25 C45         -2.1810    -2.5990    -0.4860 ca         1 Z9Z      -0.104000
     26 C44         -3.5330    -2.6150    -0.7970 ca         1 Z9Z      -0.105500
     27 C43         -4.4420    -1.9430     0.0100 ca         1 Z9Z      -0.111000
     28 C42         -3.9940    -1.2830     1.1450 ca         1 Z9Z      -0.105500
     29 C41         -2.6420    -1.2820     1.4570 ca         1 Z9Z      -0.104000
     30 N16         -0.5040     0.6320     0.3710 ns         1 Z9Z      -0.489900
     31 C14         -1.5200     1.0040    -0.4270 c          1 Z9Z       0.587100
     32 O15         -1.7010     0.5610    -1.5500 o          1 Z9Z      -0.606100
     33 C13         -2.4240     2.0880     0.1540 c3         1 Z9Z       0.038700
     34 C46         -1.7440     3.4720     0.0550 c3         1 Z9Z      -0.059700
     35 C48         -1.3760     3.8420    -1.3780 c3         1 Z9Z      -0.088100
     36 C47         -2.6180     4.5500     0.6860 c3         1 Z9Z      -0.088100
     37 N12         -3.6900     2.0290    -0.5290 ns         1 Z9Z      -0.499900
     38 C10         -4.8750     2.0050     0.1410 c          1 Z9Z       0.655100
     39 O11         -4.9500     2.1860     1.3530 o          1 Z9Z      -0.662100
     40 N08         -5.9870     1.8220    -0.6330 n          1 Z9Z      -0.414800
     41 C09         -5.9120     1.4600    -2.0330 c3         1 Z9Z       0.086300
     42 C07         -7.2700     1.6950     0.0320 c3         1 Z9Z       0.088700
     43 C06         -7.6100     0.2860     0.4150 cc         1 Z9Z       0.248300
     44 N05         -8.0770    -0.5850    -0.5350 nc         1 Z9Z      -0.650000
     45 C49         -7.4940    -0.2400     1.6610 cd         1 Z9Z      -0.237000
     46 S50         -7.9830    -1.8820     1.6530 ss         1 Z9Z      -0.048400
     47 C04         -8.3190    -1.7580    -0.0460 cd         1 Z9Z       0.441700
     48 C02         -8.8370    -2.9250    -0.8280 c3         1 Z9Z      -0.101000
     49 C03         -7.7990    -4.0460    -0.9080 c3         1 Z9Z      -0.088600
     50 C01        -10.1610    -3.4360    -0.2590 c3         1 Z9Z      -0.088600
     51 H1           8.1970    -0.6960     1.2720 h1         1 Z9Z       0.059200
     52 H2           7.3620    -2.1770     1.7520 h1         1 Z9Z       0.059200
     53 H3           9.7430    -0.6720    -0.5990 h4         1 Z9Z       0.020100
     54 H4          10.8540    -4.1580    -2.4610 h4         1 Z9Z       0.020100
     55 H5           9.0990    -5.4520    -1.2840 ha         1 Z9Z       0.126000
     56 H6           7.5980    -4.2610     0.3140 ha         1 Z9Z       0.122000
     57 H7           4.7630    -0.3060    -1.0790 hn         1 Z9Z       0.316500
     58 H8           3.8560     1.3760     1.1720 h1         1 Z9Z       0.084700
     59 H9           4.2630     2.2380    -1.7220 hc         1 Z9Z       0.053700
     60 H10          3.7420     3.2580    -0.3910 hc         1 Z9Z       0.053700
     61 H11          6.6020     1.5410    -1.9430 ha         1 Z9Z       0.109500
     62 H12          8.9540     1.8750    -1.3020 ha         1 Z9Z       0.113000
     63 H13          9.5200     3.2280     0.6940 ha         1 Z9Z       0.112000
     64 H14          7.7050     4.2500     2.0330 ha         1 Z9Z       0.113000
     65 H15          5.3520     3.8960     1.4010 ha         1 Z9Z       0.109500
     66 H16          1.8100     1.7730    -0.2030 hc         1 Z9Z       0.051700
     67 H17          2.3700     0.5980    -1.3720 hc         1 Z9Z       0.051700
     68 H18          2.3400    -1.1800     0.3890 hc         1 Z9Z       0.052700
     69 H19          1.8210    -0.0070     1.5790 hc         1 Z9Z       0.052700
     70 H20          0.2700    -0.7420    -0.9410 h1         1 Z9Z       0.084700
     71 H21          0.3100    -2.6420     0.5710 hc         1 Z9Z       0.052700
     72 H22         -0.0570    -1.6240     1.9570 hc         1 Z9Z       0.052700
     73 H23         -1.4760    -3.1060    -1.1350 ha         1 Z9Z       0.107500
     74 H24         -3.8770    -3.1430    -1.6780 ha         1 Z9Z       0.117000
     75 H25         -5.4940    -1.9320    -0.2440 ha         1 Z9Z       0.114000
     76 H26         -4.6940    -0.7520     1.7750 ha         1 Z9Z       0.117000
     77 H27         -2.3020    -0.7630     2.3460 ha         1 Z9Z       0.107500
     78 H28         -0.5010     0.9930     1.3140 hn         1 Z9Z       0.307500
     79 H29         -2.5940     1.8750     1.2120 h1         1 Z9Z       0.083700
     80 H30         -0.8220     3.4090     0.6420 hc         1 Z9Z       0.041700
     81 H31         -2.2510     3.8100    -2.0310 hc         1 Z9Z       0.038867
     82 H32         -0.9760     4.8560    -1.4150 hc         1 Z9Z       0.038867
     83 H33         -0.6180     3.1810    -1.7980 hc         1 Z9Z       0.038867
     84 H34         -2.9130     4.2870     1.7030 hc         1 Z9Z       0.038867
     85 H35         -2.0790     5.4970     0.7260 hc         1 Z9Z       0.038867
     86 H36         -3.5280     4.7150     0.1070 hc         1 Z9Z       0.038867
     87 H37         -3.6400     1.6650    -1.4660 hn         1 Z9Z       0.332500
     88 H38         -5.5320     0.4470    -2.1930 h1         1 Z9Z       0.043033
     89 H39         -6.9090     1.5070    -2.4620 h1         1 Z9Z       0.043033
     90 H40         -5.2930     2.1610    -2.5940 h1         1 Z9Z       0.043033
     91 H41         -7.2770     2.3280     0.9150 h1         1 Z9Z       0.072700
     92 H42         -8.0370     2.0780    -0.6430 h1         1 Z9Z       0.072700
     93 H43         -7.1510     0.2470     2.5610 h4         1 Z9Z       0.172000
     94 H44         -9.0150    -2.5440    -1.8360 hc         1 Z9Z       0.076700
     95 H45         -7.5680    -4.4470     0.0810 hc         1 Z9Z       0.040867
     96 H46         -8.1770    -4.8670    -1.5180 hc         1 Z9Z       0.040867
     97 H47         -6.8690    -3.6990    -1.3570 hc         1 Z9Z       0.040867
     98 H48        -10.0370    -3.8310     0.7510 hc         1 Z9Z       0.040867
     99 H49        -10.9110    -2.6460    -0.2220 hc         1 Z9Z       0.040867
    100 H50        -10.5500    -4.2410    -0.8820 hc         1 Z9Z       0.040867
@<TRIPOS>BOND
     1     1     2 2   
     2     2     3 1   
     3     2    11 1   
     4     3     4 1   
     5     4     5 1   
     6     4    51 1   
     7     4    52 1   
     8     5     6 ar  
     9     5    10 ar  
    10     6     7 ar  
    11     6    53 1   
    12     7     8 ar  
    13     8     9 ar  
    14     8    54 1   
    15     9    10 ar  
    16     9    55 1   
    17    10    56 1   
    18    11    12 1   
    19    11    57 1   
    20    12    13 1   
    21    12    20 1   
    22    12    58 1   
    23    13    14 1   
    24    13    59 1   
    25    13    60 1   
    26    14    15 ar  
    27    14    19 ar  
    28    15    16 ar  
    29    15    61 1   
    30    16    17 ar  
    31    16    62 1   
    32    17    18 ar  
    33    17    63 1   
    34    18    19 ar  
    35    18    64 1   
    36    19    65 1   
    37    20    21 1   
    38    20    66 1   
    39    20    67 1   
    40    21    22 1   
    41    21    68 1   
    42    21    69 1   
    43    22    23 1   
    44    22    30 1   
    45    22    70 1   
    46    23    24 1   
    47    23    71 1   
    48    23    72 1   
    49    24    25 ar  
    50    24    29 ar  
    51    25    26 ar  
    52    25    73 1   
    53    26    27 ar  
    54    26    74 1   
    55    27    28 ar  
    56    27    75 1   
    57    28    29 ar  
    58    28    76 1   
    59    29    77 1   
    60    30    31 1   
    61    30    78 1   
    62    31    32 2   
    63    31    33 1   
    64    33    34 1   
    65    33    37 1   
    66    33    79 1   
    67    34    35 1   
    68    34    36 1   
    69    34    80 1   
    70    35    81 1   
    71    35    82 1   
    72    35    83 1   
    73    36    84 1   
    74    36    85 1   
    75    36    86 1   
    76    37    38 1   
    77    37    87 1   
    78    38    39 2   
    79    38    40 1   
    80    40    41 1   
    81    40    42 1   
    82    41    88 1   
    83    41    89 1   
    84    41    90 1   
    85    42    43 1   
    86    42    91 1   
    87    42    92 1   
    88    43    44 1   
    89    43    45 2   
    90    44    47 2   
    91    45    46 1   
    92    45    93 1   
    93    46    47 1   
    94    47    48 1   
    95    48    49 1   
    96    48    50 1   
    97    48    94 1   
    98    49    95 1   
    99    49    96 1   
   100    49    97 1   
   101    50    98 1   
   102    50    99 1   
   103    50   100 1   
@<TRIPOS>SUBSTRUCTURE
     1 Z9Z         1 TEMP              0 ****  ****    0 ROOT
