@<TRIPOS>MOLECULE
Z9Z
  100   103     1     0     0
SMALL
No Charge or Current Charge


@<TRIPOS>ATOM
      1 O30          5.9040     0.1430     1.8780 o          1 Z9Z      -0.535000
      2 C29          5.7930    -0.1940     0.7100 c          1 Z9Z       0.637100
      3 O31          6.4950    -1.1840     0.0970 os         1 Z9Z      -0.463100
      4 C32          7.4730    -1.8830     0.8800 c3         1 Z9Z       0.234900
      5 C33          8.1340    -2.9200    -0.0090 ca         1 Z9Z      -0.152300
      6 C38          9.2710    -2.5810    -0.7660 ca         1 Z9Z       0.356900
      7 N37          9.9110    -3.4570    -1.5780 nb         1 Z9Z      -0.669000
      8 C36          9.4190    -4.7150    -1.6590 ca         1 Z9Z       0.344900
      9 C35          8.2870    -5.1390    -0.9420 ca         1 Z9Z      -0.169000
     10 C34          7.6270    -4.2290    -0.1000 ca         1 Z9Z      -0.049000
     11 N28          4.9310     0.3550    -0.1970 ns         1 Z9Z      -0.487900
     12 C20          4.0490     1.4950     0.0660 c3         1 Z9Z       0.117700
     13 C21          4.5830     2.7670    -0.6360 c3         1 Z9Z      -0.056100
     14 C22          6.0150     3.1090    -0.2360 ca         1 Z9Z      -0.087300
     15 C27          7.0890     2.8050    -1.0970 ca         1 Z9Z      -0.100000
     16 C26          8.4080     3.1070    -0.7180 ca         1 Z9Z      -0.108000
     17 C25          8.6630     3.7150     0.5220 ca         1 Z9Z      -0.108000
     18 C24          7.5960     4.0200     1.3850 ca         1 Z9Z      -0.108000
     19 C23          6.2760     3.7180     1.0060 ca         1 Z9Z      -0.100000
     20 C19          2.5880     1.1720    -0.3290 c3         1 Z9Z      -0.080400
     21 C18          1.9800    -0.0310     0.4380 c3         1 Z9Z      -0.080400
     22 C17          0.5180    -0.3460     0.0460 c3         1 Z9Z       0.102700
     23 C39         -0.0310    -1.6150     0.7510 c3         1 Z9Z      -0.052100
     24 C40         -1.5170    -1.8450     0.4770 ca         1 Z9Z      -0.086300
     25 C45         -1.9350    -2.4240    -0.7370 ca         1 Z9Z      -0.104000
     26 C44         -3.3050    -2.5680    -1.0190 ca         1 Z9Z      -0.105500
     27 C43         -4.2650    -2.1310    -0.0910 ca         1 Z9Z      -0.111000
     28 C42         -3.8540    -1.5610     1.1250 ca         1 Z9Z      -0.105500
     29 C41         -2.4850    -1.4210     1.4090 ca         1 Z9Z      -0.104000
     30 N16         -0.3610     0.7970     0.3120 ns         1 Z9Z      -0.489900
     31 C14         -1.3760     1.2080    -0.5290 c          1 Z9Z       0.587100
     32 O15         -1.4780     0.7980    -1.6800 o          1 Z9Z      -0.606100
     33 C13         -2.3970     2.1880     0.1130 c3         1 Z9Z       0.038700
     34 C46         -1.8830     3.6610     0.1020 c3         1 Z9Z      -0.059700
     35 C48         -1.7050     4.2370    -1.3240 c3         1 Z9Z      -0.088100
     36 C47         -2.7590     4.5920     0.9720 c3         1 Z9Z      -0.088100
     37 N12         -3.7020     2.0380    -0.5670 ns         1 Z9Z      -0.499900
     38 C10         -4.9220     1.9650     0.0580 c          1 Z9Z       0.655100
     39 O11         -5.0450     2.1240     1.2620 o          1 Z9Z      -0.662100
     40 N08         -6.0170     1.6830    -0.7800 n          1 Z9Z      -0.414800
     41 C09         -5.8530     1.4210    -2.2290 c3         1 Z9Z       0.086300
     42 C07         -7.3790     1.5280    -0.2080 c3         1 Z9Z       0.088700
     43 C06         -7.6330     0.1240     0.2920 cc         1 Z9Z       0.248300
     44 N05         -8.1690    -0.8080    -0.5650 nc         1 Z9Z      -0.650000
     45 C49         -7.3650    -0.3240     1.5620 cd         1 Z9Z      -0.237000
     46 S50         -7.7850    -2.0160     1.7410 ss         1 Z9Z      -0.048400
     47 C04         -8.3030    -1.9710     0.0580 cd         1 Z9Z       0.441700
     48 C02         -8.8500    -3.1900    -0.6540 c3         1 Z9Z      -0.101000
     49 C03         -7.7620    -4.2720    -0.8530 c3         1 Z9Z      -0.088600
     50 C01        -10.0980    -3.7630     0.0570 c3         1 Z9Z      -0.088600
     51 H1           8.2330    -1.1890     1.2650 h1         1 Z9Z       0.059200
     52 H2           7.0030    -2.3800     1.7400 h1         1 Z9Z       0.059200
     53 H3           9.6880    -1.5750    -0.7220 h4         1 Z9Z       0.020100
     54 H4           9.9480    -5.4020    -2.3180 h4         1 Z9Z       0.020100
     55 H5           7.9310    -6.1600    -1.0440 ha         1 Z9Z       0.126000
     56 H6           6.7470    -4.5320     0.4640 ha         1 Z9Z       0.122000
     57 H7           4.9610    -0.0390    -1.1270 hn         1 Z9Z       0.316500
     58 H8           4.0550     1.6950     1.1470 h1         1 Z9Z       0.084700
     59 H9           4.5140     2.6320    -1.7220 hc         1 Z9Z       0.053700
     60 H10          3.9240     3.6100    -0.3940 hc         1 Z9Z       0.053700
     61 H11          6.9020     2.3290    -2.0570 ha         1 Z9Z       0.109500
     62 H12          9.2330     2.8680    -1.3860 ha         1 Z9Z       0.113000
     63 H13          9.6840     3.9480     0.8160 ha         1 Z9Z       0.112000
     64 H14          7.7920     4.4900     2.3460 ha         1 Z9Z       0.113000
     65 H15          5.4570     3.9540     1.6820 ha         1 Z9Z       0.109500
     66 H16          1.9750     2.0630    -0.1460 hc         1 Z9Z       0.051700
     67 H17          2.5400     0.9740    -1.4070 hc         1 Z9Z       0.051700
     68 H18          2.5880    -0.9240     0.2510 hc         1 Z9Z       0.052700
     69 H19          2.0320     0.1650     1.5160 hc         1 Z9Z       0.052700
     70 H20          0.5070    -0.5460    -1.0350 h1         1 Z9Z       0.084700
     71 H21          0.5500    -2.4850     0.4240 hc         1 Z9Z       0.052700
     72 H22          0.1380    -1.5250     1.8310 hc         1 Z9Z       0.052700
     73 H23         -1.1990    -2.7460    -1.4700 ha         1 Z9Z       0.107500
     74 H24         -3.6220    -3.0080    -1.9620 ha         1 Z9Z       0.117000
     75 H25         -5.3230    -2.2310    -0.3150 ha         1 Z9Z       0.114000
     76 H26         -4.5950    -1.2200     1.8440 ha         1 Z9Z       0.117000
     77 H27         -2.1780    -0.9630     2.3470 ha         1 Z9Z       0.107500
     78 H28         -0.3510     1.1970     1.2420 hn         1 Z9Z       0.307500
     79 H29         -2.5100     1.8670     1.1570 h1         1 Z9Z       0.083700
     80 H30         -0.8890     3.6530     0.5670 hc         1 Z9Z       0.041700
     81 H31         -2.6640     4.2890    -1.8530 hc         1 Z9Z       0.038867
     82 H32         -1.2890     5.2510    -1.2800 hc         1 Z9Z       0.038867
     83 H33         -1.0170     3.6220    -1.9160 hc         1 Z9Z       0.038867
     84 H34         -2.8580     4.1950     1.9890 hc         1 Z9Z       0.038867
     85 H35         -2.3090     5.5900     1.0430 hc         1 Z9Z       0.038867
     86 H36         -3.7630     4.7020     0.5450 hc         1 Z9Z       0.038867
     87 H37         -3.6950     1.8550    -1.5620 hn         1 Z9Z       0.332500
     88 H38         -5.1750     0.5700    -2.3790 h1         1 Z9Z       0.043033
     89 H39         -6.8200     1.1790    -2.6890 h1         1 Z9Z       0.043033
     90 H40         -5.4410     2.3090    -2.7250 h1         1 Z9Z       0.043033
     91 H41         -7.5140     2.2330     0.6220 h1         1 Z9Z       0.072700
     92 H42         -8.1290     1.7820    -0.9680 h1         1 Z9Z       0.072700
     93 H43         -6.9400     0.2360     2.3850 h4         1 Z9Z       0.172000
     94 H44         -9.1740    -2.8800    -1.6550 hc         1 Z9Z       0.076700
     95 H45         -7.3920    -4.6420     0.1110 hc         1 Z9Z       0.040867
     96 H46         -8.1610    -5.1240    -1.4160 hc         1 Z9Z       0.040867
     97 H47         -6.9120    -3.8650    -1.4140 hc         1 Z9Z       0.040867
     98 H48         -9.8470    -4.1430     1.0550 hc         1 Z9Z       0.040867
     99 H49        -10.8680    -2.9890     0.1680 hc         1 Z9Z       0.040867
    100 H50        -10.5290    -4.5890    -0.5220 hc         1 Z9Z       0.040867
@<TRIPOS>BOND
     1     1     2 2   
     2     2     3 1   
     3     2    11 1   
     4     3     4 1   
     5     4     5 1   
     6     4    51 1   
     7     4    52 1   
     8     5     6 ar  
     9     5    10 ar  
    10     6     7 ar  
    11     6    53 1   
    12     7     8 ar  
    13     8     9 ar  
    14     8    54 1   
    15     9    10 ar  
    16     9    55 1   
    17    10    56 1   
    18    11    12 1   
    19    11    57 1   
    20    12    13 1   
    21    12    20 1   
    22    12    58 1   
    23    13    14 1   
    24    13    59 1   
    25    13    60 1   
    26    14    15 ar  
    27    14    19 ar  
    28    15    16 ar  
    29    15    61 1   
    30    16    17 ar  
    31    16    62 1   
    32    17    18 ar  
    33    17    63 1   
    34    18    19 ar  
    35    18    64 1   
    36    19    65 1   
    37    20    21 1   
    38    20    66 1   
    39    20    67 1   
    40    21    22 1   
    41    21    68 1   
    42    21    69 1   
    43    22    23 1   
    44    22    30 1   
    45    22    70 1   
    46    23    24 1   
    47    23    71 1   
    48    23    72 1   
    49    24    25 ar  
    50    24    29 ar  
    51    25    26 ar  
    52    25    73 1   
    53    26    27 ar  
    54    26    74 1   
    55    27    28 ar  
    56    27    75 1   
    57    28    29 ar  
    58    28    76 1   
    59    29    77 1   
    60    30    31 1   
    61    30    78 1   
    62    31    32 2   
    63    31    33 1   
    64    33    34 1   
    65    33    37 1   
    66    33    79 1   
    67    34    35 1   
    68    34    36 1   
    69    34    80 1   
    70    35    81 1   
    71    35    82 1   
    72    35    83 1   
    73    36    84 1   
    74    36    85 1   
    75    36    86 1   
    76    37    38 1   
    77    37    87 1   
    78    38    39 2   
    79    38    40 1   
    80    40    41 1   
    81    40    42 1   
    82    41    88 1   
    83    41    89 1   
    84    41    90 1   
    85    42    43 1   
    86    42    91 1   
    87    42    92 1   
    88    43    44 1   
    89    43    45 2   
    90    44    47 2   
    91    45    46 1   
    92    45    93 1   
    93    46    47 1   
    94    47    48 1   
    95    48    49 1   
    96    48    50 1   
    97    48    94 1   
    98    49    95 1   
    99    49    96 1   
   100    49    97 1   
   101    50    98 1   
   102    50    99 1   
   103    50   100 1   
@<TRIPOS>SUBSTRUCTURE
     1 Z9Z         1 TEMP              0 ****  ****    0 ROOT
