@<TRIPOS>MOLECULE
ZA6
   51    54     1     0     0
SMALL
abcg2


@<TRIPOS>ATOM
      1 C01        -15.5750    -8.6380    14.8170 ca         1 ZA6      -0.104500
      2 C02        -16.0120    -7.3310    14.9730 ca         1 ZA6      -0.112250
      3 C03        -15.1100    -6.3210    15.2850 ca         1 ZA6      -0.094250
      4 C04        -13.7570    -6.6050    15.4440 ca         1 ZA6      -0.078800
      5 C05        -13.3280    -7.9210    15.2850 ca         1 ZA6      -0.094250
      6 C06        -14.2260    -8.9310    14.9750 ca         1 ZA6      -0.112250
      7 C07        -12.7230    -5.5560    15.8100 c3         1 ZA6       0.008600
      8 C08        -12.4850    -5.4490    17.3060 ca         1 ZA6      -0.078800
      9 C09        -13.0390    -4.2140    15.2320 cc         1 ZA6       0.560300
     10 C10        -13.5250    -5.5300    18.2270 ca         1 ZA6      -0.094250
     11 C11        -11.9760    -5.2030    20.0430 ca         1 ZA6      -0.104500
     12 C12        -10.9340    -5.1210    19.1310 ca         1 ZA6      -0.112250
     13 C13        -11.1890    -5.2430    17.7710 ca         1 ZA6      -0.094250
     14 C14        -13.2720    -5.4070    19.5860 ca         1 ZA6      -0.112250
     15 C15        -13.9460    -2.3780    14.8850 cd         1 ZA6       0.435300
     16 C16        -14.8380    -1.1750    14.8160 c3         1 ZA6       0.167500
     17 C17        -17.0140    -2.1640    15.3080 c3         1 ZA6       0.170100
     18 C18        -16.3300    -1.8450    12.9710 c3         1 ZA6       0.272800
     19 C19        -16.2810    -3.3460    12.6850 c3         1 ZA6      -0.113100
     20 C20        -17.5980    -1.2340    12.4390 cc         1 ZA6      -0.214300
     21 C21        -19.4340     0.3650    11.9770 cc         1 ZA6      -0.255000
     22 C22        -19.5150    -0.7570    11.2130 cd         1 ZA6      -0.134000
     23 C23        -18.4590    -1.6750    11.4790 cd         1 ZA6      -0.133000
     24 N01        -12.4230    -3.7600    14.1840 nd         1 ZA6      -0.374300
     25 N02        -13.9920    -3.3680    15.7160 nc         1 ZA6      -0.710000
     26 N03        -16.1800    -1.4490    14.3670 n3         1 ZA6      -0.761600
     27 O01        -13.0180    -2.5500    13.9530 os         1 ZA6      -0.088700
     28 S01        -18.0830     0.3100    13.0340 ss         1 ZA6       0.232000
     29 H1         -16.2790    -9.4230    14.5720 ha         1 ZA6       0.112500
     30 H2         -17.0600    -7.0890    14.8500 ha         1 ZA6       0.113000
     31 H3         -15.4800    -5.3100    15.4050 ha         1 ZA6       0.118250
     32 H4         -12.2760    -8.1580    15.4020 ha         1 ZA6       0.118250
     33 H5         -13.8720    -9.9460    14.8520 ha         1 ZA6       0.113000
     34 H6         -11.7800    -5.8640    15.3510 hc         1 ZA6       0.079700
     35 H7         -14.5390    -5.6990    17.8890 ha         1 ZA6       0.118250
     36 H8         -11.7810    -5.1120    21.1040 ha         1 ZA6       0.112500
     37 H9          -9.9190    -4.9660    19.4750 ha         1 ZA6       0.113000
     38 H10        -10.3700    -5.1800    17.0640 ha         1 ZA6       0.118250
     39 H11        -14.0910    -5.4740    20.2910 ha         1 ZA6       0.113000
     40 H12        -14.3800    -0.4320    14.1600 h1         1 ZA6       0.083700
     41 H13        -14.8880    -0.7360    15.8140 h1         1 ZA6       0.083700
     42 H14        -16.9820    -1.6610    16.2750 h1         1 ZA6       0.040700
     43 H15        -18.0490    -2.1500    14.9640 h1         1 ZA6       0.040700
     44 H16        -16.7280    -3.2100    15.4670 h1         1 ZA6       0.040700
     45 H17        -15.4970    -1.3800    12.4320 h1         1 ZA6       0.067700
     46 H18        -15.3600    -3.8000    13.0490 hc         1 ZA6       0.044033
     47 H19        -17.1190    -3.8760    13.1380 hc         1 ZA6       0.044033
     48 H20        -16.3140    -3.5240    11.6110 hc         1 ZA6       0.044033
     49 H21        -20.1060     1.2090    11.9910 h4         1 ZA6       0.148000
     50 H22        -20.2980    -0.9330    10.4890 ha         1 ZA6       0.132000
     51 H23        -18.3540    -2.6220    10.9690 ha         1 ZA6       0.131000
@<TRIPOS>BOND
     1     1     2 ar  
     2     1     6 ar  
     3     1    29 1   
     4     2     3 ar  
     5     2    30 1   
     6     3     4 ar  
     7     3    31 1   
     8     4     5 ar  
     9     4     7 1   
    10     5     6 ar  
    11     5    32 1   
    12     6    33 1   
    13     7     8 1   
    14     7     9 1   
    15     7    34 1   
    16     8    10 ar  
    17     8    13 ar  
    18     9    24 2   
    19     9    25 1   
    20    10    14 ar  
    21    10    35 1   
    22    11    12 ar  
    23    11    14 ar  
    24    11    36 1   
    25    12    13 ar  
    26    12    37 1   
    27    13    38 1   
    28    14    39 1   
    29    15    16 1   
    30    15    25 2   
    31    15    27 1   
    32    16    26 1   
    33    16    40 1   
    34    16    41 1   
    35    17    26 1   
    36    17    42 1   
    37    17    43 1   
    38    17    44 1   
    39    18    19 1   
    40    18    20 1   
    41    18    26 1   
    42    18    45 1   
    43    19    46 1   
    44    19    47 1   
    45    19    48 1   
    46    20    23 2   
    47    20    28 1   
    48    21    22 2   
    49    21    28 1   
    50    21    49 1   
    51    22    23 1   
    52    22    50 1   
    53    23    51 1   
    54    24    27 1   
@<TRIPOS>SUBSTRUCTURE
     1 ZA6         1 TEMP              0 ****  ****    0 ROOT
