@<TRIPOS>MOLECULE
ZA6
   51    54     1     0     0
SMALL
No Charge or Current Charge


@<TRIPOS>ATOM
      1 C01        -15.1920    -8.9240    14.5390 ca         1 ZA6      -0.104500
      2 C02        -15.6620    -7.6050    14.4350 ca         1 ZA6      -0.112250
      3 C03        -14.8510    -6.5320    14.8430 ca         1 ZA6      -0.094250
      4 C04        -13.5560    -6.7680    15.3580 ca         1 ZA6      -0.078800
      5 C05        -13.0970    -8.0980    15.4630 ca         1 ZA6      -0.094250
      6 C06        -13.9090    -9.1700    15.0550 ca         1 ZA6      -0.112250
      7 C07        -12.6440    -5.6200    15.8140 c3         1 ZA6       0.008600
      8 C08        -12.7090    -5.4280    17.3370 ca         1 ZA6      -0.078800
      9 C09        -12.8370    -4.3340    15.0270 cc         1 ZA6       0.560300
     10 C10        -13.9480    -5.3690    18.0100 ca         1 ZA6      -0.094250
     11 C11        -12.8040    -5.0820    20.1400 ca         1 ZA6      -0.104500
     12 C12        -11.5660    -5.1370    19.4790 ca         1 ZA6      -0.112250
     13 C13        -11.5180    -5.3090    18.0850 ca         1 ZA6      -0.094250
     14 C14        -13.9950    -5.1980    19.4040 ca         1 ZA6      -0.112250
     15 C15        -13.5900    -2.4730    14.4840 cd         1 ZA6       0.435300
     16 C16        -14.3450    -1.1500    14.3880 c3         1 ZA6       0.167500
     17 C17        -16.5850    -1.7850    15.3310 c3         1 ZA6       0.170100
     18 C18        -16.3070    -1.6110    12.8380 c3         1 ZA6       0.272800
     19 C19        -16.1780    -3.1250    12.5380 c3         1 ZA6      -0.113100
     20 C20        -17.7070    -1.1020    12.5910 cc         1 ZA6      -0.214300
     21 C21        -19.7100     0.3300    12.0580 cc         1 ZA6      -0.255000
     22 C22        -20.0320    -0.9710    12.3450 cd         1 ZA6      -0.134000
     23 C23        -18.9040    -1.7800    12.6460 cd         1 ZA6      -0.133000
     24 N01        -12.2000    -4.0960    13.8910 nd         1 ZA6      -0.374300
     25 N02        -13.6960    -3.3610    15.4530 nc         1 ZA6      -0.710000
     26 N03        -15.8390    -1.1930    14.1890 n3         1 ZA6      -0.761600
     27 O01        -12.6990    -2.8280    13.5170 os         1 ZA6      -0.088700
     28 S01        -17.9710     0.5860    12.1600 ss         1 ZA6       0.232000
     29 H1         -15.8210    -9.7540    14.2240 ha         1 ZA6       0.112500
     30 H2         -16.6580    -7.4140    14.0400 ha         1 ZA6       0.113000
     31 H3         -15.2420    -5.5210    14.7610 ha         1 ZA6       0.118250
     32 H4         -12.1070    -8.3020    15.8650 ha         1 ZA6       0.118250
     33 H5         -13.5440   -10.1910    15.1400 ha         1 ZA6       0.113000
     34 H6         -11.6210    -5.9380    15.5810 hc         1 ZA6       0.079700
     35 H7         -14.8780    -5.4510    17.4540 ha         1 ZA6       0.118250
     36 H8         -12.8410    -4.9490    21.2190 ha         1 ZA6       0.112500
     37 H9         -10.6430    -5.0470    20.0480 ha         1 ZA6       0.113000
     38 H10        -10.5510    -5.3490    17.5880 ha         1 ZA6       0.118250
     39 H11        -14.9550    -5.1530    19.9140 ha         1 ZA6       0.113000
     40 H12        -13.8840    -0.5720    13.5760 h1         1 ZA6       0.083700
     41 H13        -14.1200    -0.5970    15.3090 h1         1 ZA6       0.083700
     42 H14        -16.2660    -1.3300    16.2780 h1         1 ZA6       0.040700
     43 H15        -17.6640    -1.6130    15.2290 h1         1 ZA6       0.040700
     44 H16        -16.4180    -2.8670    15.4020 h1         1 ZA6       0.040700
     45 H17        -15.6770    -1.1060    12.0900 h1         1 ZA6       0.067700
     46 H18        -15.1330    -3.4480    12.5370 hc         1 ZA6       0.044033
     47 H19        -16.7270    -3.7300    13.2680 hc         1 ZA6       0.044033
     48 H20        -16.5840    -3.3460    11.5440 hc         1 ZA6       0.044033
     49 H21        -20.3580     1.1570    11.7980 h4         1 ZA6       0.148000
     50 H22        -21.0520    -1.3470    12.3440 ha         1 ZA6       0.132000
     51 H23        -18.9870    -2.8330    12.8970 ha         1 ZA6       0.131000
@<TRIPOS>BOND
     1     1     2 ar  
     2     1     6 ar  
     3     1    29 1   
     4     2     3 ar  
     5     2    30 1   
     6     3     4 ar  
     7     3    31 1   
     8     4     5 ar  
     9     4     7 1   
    10     5     6 ar  
    11     5    32 1   
    12     6    33 1   
    13     7     8 1   
    14     7     9 1   
    15     7    34 1   
    16     8    10 ar  
    17     8    13 ar  
    18     9    24 2   
    19     9    25 1   
    20    10    14 ar  
    21    10    35 1   
    22    11    12 ar  
    23    11    14 ar  
    24    11    36 1   
    25    12    13 ar  
    26    12    37 1   
    27    13    38 1   
    28    14    39 1   
    29    15    16 1   
    30    15    25 2   
    31    15    27 1   
    32    16    26 1   
    33    16    40 1   
    34    16    41 1   
    35    17    26 1   
    36    17    42 1   
    37    17    43 1   
    38    17    44 1   
    39    18    19 1   
    40    18    20 1   
    41    18    26 1   
    42    18    45 1   
    43    19    46 1   
    44    19    47 1   
    45    19    48 1   
    46    20    23 2   
    47    20    28 1   
    48    21    22 2   
    49    21    28 1   
    50    21    49 1   
    51    22    23 1   
    52    22    50 1   
    53    23    51 1   
    54    24    27 1   
@<TRIPOS>SUBSTRUCTURE
     1 ZA6         1 TEMP              0 ****  ****    0 ROOT
