@<TRIPOS>MOLECULE
ZA9
   31    33     1     0     0
SMALL
abcg2


@<TRIPOS>ATOM
      1 C10         26.9770   -38.1010    11.9230 ca         1 ZA9      -0.131000
      2 N12         28.4590   -40.0530    12.4190 na         1 ZA9      -0.224700
      3 C13         29.0950   -40.9930    11.6600 cc         1 ZA9      -0.166100
      4 C15         28.0070   -39.6030    10.2710 ca         1 ZA9      -0.100800
      5 C01         29.3630   -37.6580     6.9850 c6         1 ZA9      -0.113400
      6 C02         28.3850   -37.2500     5.8890 c6         1 ZA9       0.153800
      7 N03         26.9930   -37.4740     6.2390 n7         1 ZA9      -0.856400
      8 C04         26.7390   -38.8270     6.7050 c6         1 ZA9       0.160800
      9 C05         27.6800   -39.3750     7.7900 c6         1 ZA9      -0.051400
     10 C06         29.1380   -39.1150     7.3650 c6         1 ZA9      -0.067400
     11 C07         27.4140   -38.9010     9.2010 ca         1 ZA9      -0.015300
     12 C08         26.6050   -37.8280     9.5360 ca         1 ZA9      -0.144000
     13 C09         26.3920   -37.4330    10.8690 ca         1 ZA9      -0.090000
     14 C11         27.7820   -39.1940    11.6030 ca         1 ZA9      -0.047200
     15 C14         28.8480   -40.7590    10.3380 cd         1 ZA9      -0.243200
     16 H1          26.8110   -37.7980    12.9490 ha         1 ZA9       0.113000
     17 H2          28.4760   -40.0130    13.4240 hn         1 ZA9       0.348000
     18 H3          29.6810   -41.7690    12.1270 h4         1 ZA9       0.211000
     19 H5          29.2310   -37.0120     7.8590 hc         1 ZA9       0.045200
     20 H6          28.6090   -37.8250     4.9820 h1         1 ZA9       0.048200
     21 H7          28.5110   -36.1970     5.6270 h1         1 ZA9       0.048200
     22 H8          26.7210   -36.8010     6.9430 hn         1 ZA9       0.406000
     23 H10         25.7000   -38.8920     7.0350 h1         1 ZA9       0.051700
     24 H11         26.8260   -39.4930     5.8390 h1         1 ZA9       0.051700
     25 H12         27.5360   -40.4620     7.8000 hc         1 ZA9       0.059700
     26 H13         29.3600   -39.7450     6.4960 hc         1 ZA9       0.044200
     27 H14         29.8290   -39.4230     8.1510 hc         1 ZA9       0.044200
     28 H15         26.0950   -37.2620     8.7690 ha         1 ZA9       0.106000
     29 H16         25.7510   -36.5830    11.0670 ha         1 ZA9       0.110000
     30 H17         29.2230   -41.3480     9.5160 ha         1 ZA9       0.203000
     31 H4          30.3910   -37.5130     6.6420 hc         1 ZA9       0.045200
@<TRIPOS>BOND
     1     1    13 ar  
     2     1    14 ar  
     3     1    16 1   
     4     2     3 1   
     5     2    14 1   
     6     2    17 1   
     7     3    15 2   
     8     3    18 1   
     9     4    11 ar  
    10     4    14 ar  
    11     4    15 1   
    12     5     6 1   
    13     5    10 1   
    14     5    19 1   
    15     5    31 1   
    16     6     7 1   
    17     6    20 1   
    18     6    21 1   
    19     7     8 1   
    20     7    22 1   
    21     8     9 1   
    22     8    23 1   
    23     8    24 1   
    24     9    10 1   
    25     9    11 1   
    26     9    25 1   
    27    10    26 1   
    28    10    27 1   
    29    11    12 ar  
    30    12    13 ar  
    31    12    28 1   
    32    13    29 1   
    33    15    30 1   
@<TRIPOS>SUBSTRUCTURE
     1 ZA9         1 TEMP              0 ****  ****    0 ROOT
