@<TRIPOS>MOLECULE
ZA9
   31    33     1     0     0
SMALL
No Charge or Current Charge


@<TRIPOS>ATOM
      1 C10         26.9580   -38.1180    11.9380 ca         1 ZA9      -0.131000
      2 N12         28.4530   -40.0660    12.4570 na         1 ZA9      -0.224700
      3 C13         29.1350   -41.0490    11.7090 cc         1 ZA9      -0.166100
      4 C15         27.9770   -39.5830    10.3100 ca         1 ZA9      -0.100800
      5 C01         29.3810   -37.6470     6.9310 c6         1 ZA9      -0.113400
      6 C02         28.3840   -37.2290     5.8260 c6         1 ZA9       0.153800
      7 N03         26.9900   -37.4350     6.2770 n7         1 ZA9      -0.856400
      8 C04         26.7100   -38.8440     6.6750 c6         1 ZA9       0.160800
      9 C05         27.6860   -39.3800     7.7700 c6         1 ZA9      -0.051400
     10 C06         29.1590   -39.1240     7.3340 c6         1 ZA9      -0.067400
     11 C07         27.4070   -38.9010     9.2160 ca         1 ZA9      -0.015300
     12 C08         26.5690   -37.7990     9.5350 ca         1 ZA9      -0.144000
     13 C09         26.3520   -37.4110    10.8800 ca         1 ZA9      -0.090000
     14 C11         27.7680   -39.2090    11.6090 ca         1 ZA9      -0.047200
     15 C14         28.8340   -40.7430    10.3900 cd         1 ZA9      -0.243200
     16 H1          26.7940   -37.8280    12.9730 ha         1 ZA9       0.113000
     17 H2          28.4560   -39.9940    13.4700 hn         1 ZA9       0.348000
     18 H3          29.7390   -41.8370    12.1530 h4         1 ZA9       0.211000
     19 H5          29.2630   -36.9960     7.8080 hc         1 ZA9       0.045200
     20 H6          28.5710   -37.8200     4.9160 h1         1 ZA9       0.048200
     21 H7          28.5380   -36.1690     5.5710 h1         1 ZA9       0.048200
     22 H8          26.8430   -36.8420     7.1000 hn         1 ZA9       0.406000
     23 H10         25.6720   -38.9360     7.0260 h1         1 ZA9       0.051700
     24 H11         26.8010   -39.4830     5.7830 h1         1 ZA9       0.051700
     25 H12         27.5440   -40.4700     7.7860 hc         1 ZA9       0.059700
     26 H13         29.4010   -39.7700     6.4780 hc         1 ZA9       0.044200
     27 H14         29.8590   -39.4010     8.1320 hc         1 ZA9       0.044200
     28 H15         26.0690   -37.2320     8.7570 ha         1 ZA9       0.106000
     29 H16         25.7080   -36.5620    11.0990 ha         1 ZA9       0.110000
     30 H17         29.1960   -41.3130     9.5370 ha         1 ZA9       0.203000
     31 H4          30.4100   -37.5090     6.5730 hc         1 ZA9       0.045200
@<TRIPOS>BOND
     1     1    13 ar  
     2     1    14 ar  
     3     1    16 1   
     4     2     3 1   
     5     2    14 1   
     6     2    17 1   
     7     3    15 2   
     8     3    18 1   
     9     4    11 ar  
    10     4    14 ar  
    11     4    15 1   
    12     5     6 1   
    13     5    10 1   
    14     5    19 1   
    15     5    31 1   
    16     6     7 1   
    17     6    20 1   
    18     6    21 1   
    19     7     8 1   
    20     7    22 1   
    21     8     9 1   
    22     8    23 1   
    23     8    24 1   
    24     9    10 1   
    25     9    11 1   
    26     9    25 1   
    27    10    26 1   
    28    10    27 1   
    29    11    12 ar  
    30    12    13 ar  
    31    12    28 1   
    32    13    29 1   
    33    15    30 1   
@<TRIPOS>SUBSTRUCTURE
     1 ZA9         1 TEMP              0 ****  ****    0 ROOT
