@<TRIPOS>MOLECULE
ZAA
   62    66     1     0     0
SMALL
No Charge or Current Charge


@<TRIPOS>ATOM
      1 C13          3.3000    -0.2780    -1.8750 c3         1 ZAA      -0.100700
      2 C18         -0.8560    -2.6750     1.3910 ca         1 ZAA      -0.072000
      3 C17          0.2370    -2.1220     0.7010 ca         1 ZAA      -0.202000
      4 C16          0.0520    -1.5770    -0.5880 ca         1 ZAA       0.120100
      5 C19         -2.1300    -2.6880     0.7990 ca         1 ZAA      -0.101000
      6 C20         -2.3230    -2.1490    -0.4860 ca         1 ZAA      -0.044300
      7 C21         -1.2250    -1.5940    -1.1730 ca         1 ZAA      -0.138000
      8 C22         -3.7080    -2.1610    -1.1240 c3         1 ZAA      -0.042400
      9 C23         -4.5950    -1.0300    -0.6510 cc         1 ZAA       0.211300
     10 C24         -5.9490    -1.1420    -0.2540 cc         1 ZAA       0.313300
     11 C11          9.7710     1.6390     1.0760 ca         1 ZAA      -0.120500
     12 C12          8.8360     0.9020     0.3290 ca         1 ZAA      -0.073000
     13 C34         -6.7700    -2.4030    -0.2200 c3         1 ZAA      -0.265700
     14 C33         -6.0050     2.7460     1.2410 ca         1 ZAA      -0.116500
     15 C2           5.7810    -1.0270    -1.7740 cc         1 ZAA       0.109300
     16 C3           4.7410    -0.1900    -1.4540 cd         1 ZAA       0.249300
     17 N4           5.2080     0.8170    -0.6390 nd         1 ZAA      -0.669000
     18 C5           6.4990     0.5400    -0.5080 cc         1 ZAA       0.498500
     19 O6           6.9130    -0.5750    -1.1780 os         1 ZAA      -0.264000
     20 C7           7.4820     1.3060     0.2710 ca         1 ZAA      -0.129500
     21 C8           7.0900     2.4650     0.9790 ca         1 ZAA      -0.073000
     22 C9           8.0270     3.2000     1.7250 ca         1 ZAA      -0.120500
     23 C10          9.3680     2.7890     1.7750 ca         1 ZAA      -0.097000
     24 C14          2.4290    -0.9530    -0.8030 c3         1 ZAA       0.171600
     25 O15          1.0860    -1.0190    -1.3130 os         1 ZAA      -0.362100
     26 N25         -6.4440     0.0300     0.0670 nd         1 ZAA      -0.504800
     27 N26         -5.3420     0.8460    -0.1430 na         1 ZAA       0.317800
     28 N27         -4.1900     0.2190    -0.5940 nd         1 ZAA      -0.520800
     29 C28         -5.3930     2.2290     0.0790 ca         1 ZAA       0.064800
     30 C29         -4.8330     3.1250    -0.8580 ca         1 ZAA      -0.116500
     31 C30         -4.8840     4.5130    -0.6350 ca         1 ZAA      -0.106000
     32 C31         -5.4960     5.0160     0.5250 ca         1 ZAA      -0.140000
     33 C32         -6.0560     4.1340     1.4630 ca         1 ZAA      -0.106000
     34 C35         -6.5620    -3.1190     1.1070 c          1 ZAA       0.724000
     35 O36         -7.2600    -2.7870     2.0520 o          1 ZAA      -0.719500
     36 O37         -5.6320    -3.9020     1.1940 o          1 ZAA      -0.719500
     37 H13          2.9090     0.7260    -2.0760 hc         1 ZAA       0.064700
     38 H13A         3.2190    -0.8410    -2.8120 hc         1 ZAA       0.064700
     39 H18         -0.7160    -3.0950     2.3850 ha         1 ZAA       0.115000
     40 H17          1.2110    -2.1240     1.1810 ha         1 ZAA       0.104000
     41 H19         -2.9700    -3.1190     1.3420 ha         1 ZAA       0.157000
     42 H21         -1.3620    -1.1700    -2.1640 ha         1 ZAA       0.117000
     43 H22         -3.6170    -2.1000    -2.2150 hc         1 ZAA       0.052700
     44 H22A        -4.1750    -3.1310    -0.9310 hc         1 ZAA       0.052700
     45 H11         10.8100     1.3190     1.1140 ha         1 ZAA       0.114500
     46 H12          9.1730     0.0140    -0.2040 ha         1 ZAA       0.132000
     47 H34         -7.8190    -2.0970    -0.3150 hc         1 ZAA       0.039700
     48 H34A        -6.4390    -3.0310    -1.0540 hc         1 ZAA       0.039700
     49 H33         -6.4400     2.0690     1.9740 ha         1 ZAA       0.144000
     50 H1           5.6990    -2.0280    -3.6750 hc         1 ZAA       0.055700
     51 H1A          6.8060    -2.7770    -2.5080 hc         1 ZAA       0.055700
     52 H1B          5.0530    -2.9760    -2.3210 hc         1 ZAA       0.055700
     53 H8           6.0550     2.8000     0.9520 ha         1 ZAA       0.132000
     54 H9           7.7120     4.0910     2.2650 ha         1 ZAA       0.114500
     55 H10         10.0930     3.3580     2.3520 ha         1 ZAA       0.111000
     56 H14          2.8160    -1.9590    -0.5980 h1         1 ZAA       0.040200
     57 H14A         2.4650    -0.3650     0.1230 h1         1 ZAA       0.040200
     58 H29         -4.3580     2.7440    -1.7590 ha         1 ZAA       0.144000
     59 H30         -4.4500     5.1960    -1.3620 ha         1 ZAA       0.104500
     60 H31         -5.5350     6.0900     0.6970 ha         1 ZAA       0.101000
     61 H32         -6.5300     4.5230     2.3610 ha         1 ZAA       0.104500
     62 C1           5.8390    -2.2710    -2.6160 c3         1 ZAA      -0.114400
@<TRIPOS>BOND
     1     1    16 1   
     2     1    24 1   
     3     1    37 1   
     4     1    38 1   
     5     2     3 ar  
     6     2     5 ar  
     7     2    39 1   
     8     3     4 ar  
     9     3    40 1   
    10     4     7 ar  
    11     4    25 1   
    12     5     6 ar  
    13     5    41 1   
    14     6     7 ar  
    15     6     8 1   
    16     7    42 1   
    17     8     9 1   
    18     8    43 1   
    19     8    44 1   
    20     9    10 1   
    21     9    28 2   
    22    10    13 1   
    23    10    26 2   
    24    11    12 ar  
    25    11    23 ar  
    26    11    45 1   
    27    12    20 ar  
    28    12    46 1   
    29    13    34 1   
    30    13    47 1   
    31    13    48 1   
    32    14    29 ar  
    33    14    33 ar  
    34    14    49 1   
    35    15    16 2   
    36    15    19 1   
    37    15    62 1   
    38    16    17 1   
    39    17    18 2   
    40    18    19 1   
    41    18    20 1   
    42    20    21 ar  
    43    21    22 ar  
    44    21    53 1   
    45    22    23 ar  
    46    22    54 1   
    47    23    55 1   
    48    24    25 1   
    49    24    56 1   
    50    24    57 1   
    51    26    27 1   
    52    27    28 1   
    53    27    29 1   
    54    29    30 ar  
    55    30    31 ar  
    56    30    58 1   
    57    31    32 ar  
    58    31    59 1   
    59    32    33 ar  
    60    32    60 1   
    61    33    61 1   
    62    34    35 1   
    63    34    36 1   
    64    50    62 1   
    65    51    62 1   
    66    52    62 1   
@<TRIPOS>SUBSTRUCTURE
     1 ZAA         1 TEMP              0 ****  ****    0 ROOT
