@<TRIPOS>MOLECULE
ZAA
   62    66     1     0     0
SMALL
abcg2


@<TRIPOS>ATOM
      1 C13          3.0990     0.0860    -1.9350 c3         1 ZAA      -0.100700
      2 C18         -0.7110    -2.9540     1.0070 ca         1 ZAA      -0.072000
      3 C17          0.3150    -2.2410     0.3970 ca         1 ZAA      -0.202000
      4 C16          0.0350    -1.4920    -0.7440 ca         1 ZAA       0.120100
      5 C19         -1.9990    -2.9380     0.5000 ca         1 ZAA      -0.101000
      6 C20         -2.2790    -2.1930    -0.6450 ca         1 ZAA      -0.044300
      7 C21         -1.2640    -1.4740    -1.2560 ca         1 ZAA      -0.138000
      8 C22         -3.6790    -2.1440    -1.2060 c3         1 ZAA      -0.042400
      9 C23         -4.4900    -1.0510    -0.5930 cc         1 ZAA       0.211300
     10 C24         -5.3760    -1.1050     0.5030 cc         1 ZAA       0.313300
     11 C11          9.4510     1.1050     1.4980 ca         1 ZAA      -0.120500
     12 C12          8.5720     0.6820     0.5120 ca         1 ZAA      -0.073000
     13 C34         -5.7370    -2.2740     1.3370 c3         1 ZAA      -0.265700
     14 C33         -6.3940     2.8610     0.5000 ca         1 ZAA      -0.116500
     15 C2           5.6060    -0.4210    -2.2100 cc         1 ZAA       0.109300
     16 C3           4.5390     0.0980    -1.5580 cd         1 ZAA       0.249300
     17 N4           4.9750     0.6750    -0.3830 nd         1 ZAA      -0.669000
     18 C5           6.2520     0.4940    -0.3670 cc         1 ZAA       0.498500
     19 O6           6.7010    -0.1630    -1.4450 os         1 ZAA      -0.264000
     20 C7           7.2030     0.9180     0.6490 ca         1 ZAA      -0.129500
     21 C8           6.7320     1.5790     1.7850 ca         1 ZAA      -0.073000
     22 C9           7.6150     1.9990     2.7650 ca         1 ZAA      -0.120500
     23 C10          8.9780     1.7640     2.6250 ca         1 ZAA      -0.097000
     24 C14          2.2990    -0.8020    -0.9970 c3         1 ZAA       0.171600
     25 O15          0.9470    -0.7620    -1.4170 os         1 ZAA      -0.362100
     26 N25         -5.8530     0.1100     0.6890 nd         1 ZAA      -0.504800
     27 N26         -5.2730     0.8470    -0.2370 na         1 ZAA       0.317800
     28 N27         -4.4520     0.1930    -1.0300 nd         1 ZAA      -0.520800
     29 C28         -5.5300     2.2220    -0.3830 ca         1 ZAA       0.064800
     30 C29         -4.9180     2.9330    -1.4110 ca         1 ZAA      -0.116500
     31 C30         -5.1790     4.2880    -1.5490 ca         1 ZAA      -0.106000
     32 C31         -6.0420     4.9370    -0.6760 ca         1 ZAA      -0.140000
     33 C32         -6.6440     4.2160     0.3460 ca         1 ZAA      -0.106000
     34 C35         -4.8290    -2.4580     2.5830 c          1 ZAA       0.724000
     35 O36         -4.3530    -1.4250     3.0820 o          1 ZAA      -0.719500
     36 O37         -4.6960    -3.6280     2.9880 o          1 ZAA      -0.719500
     37 H13          2.7040     1.1050    -1.9000 hc         1 ZAA       0.064700
     38 H13A         2.9860    -0.2670    -2.9620 hc         1 ZAA       0.064700
     39 H18         -0.4900    -3.5310     1.8960 ha         1 ZAA       0.115000
     40 H17          1.3100    -2.2830     0.8190 ha         1 ZAA       0.104000
     41 H19         -2.7820    -3.5000     0.9920 ha         1 ZAA       0.157000
     42 H21         -1.4710    -0.8930    -2.1480 ha         1 ZAA       0.117000
     43 H22         -3.6420    -2.0020    -2.2870 hc         1 ZAA       0.052700
     44 H22A        -4.1770    -3.0990    -1.0290 hc         1 ZAA       0.052700
     45 H11         10.5110     0.9190     1.3820 ha         1 ZAA       0.114500
     46 H12          8.9610     0.1740    -0.3590 ha         1 ZAA       0.132000
     47 H34         -6.7630    -2.1580     1.6990 hc         1 ZAA       0.039700
     48 H34A        -5.7270    -3.1810     0.7300 hc         1 ZAA       0.039700
     49 H33         -6.8640     2.3070     1.3000 ha         1 ZAA       0.144000
     50 H1           6.4770    -0.6230    -4.1500 hc         1 ZAA       0.055700
     51 H1A          6.1890    -2.1520    -3.3200 hc         1 ZAA       0.055700
     52 H1B          4.8380    -1.2470    -3.9950 hc         1 ZAA       0.055700
     53 H8           5.6710     1.7630     1.8970 ha         1 ZAA       0.132000
     54 H9           7.2390     2.5100     3.6410 ha         1 ZAA       0.114500
     55 H10          9.6670     2.0930     3.3920 ha         1 ZAA       0.111000
     56 H14          2.6800    -1.8290    -1.0310 h1         1 ZAA       0.040200
     57 H14A         2.3960    -0.4440     0.0340 h1         1 ZAA       0.040200
     58 H29         -4.2470     2.4350    -2.0950 ha         1 ZAA       0.144000
     59 H30         -4.7020     4.8370    -2.3500 ha         1 ZAA       0.104500
     60 H31         -6.2430     5.9930    -0.7910 ha         1 ZAA       0.101000
     61 H32         -7.3170     4.7100     1.0350 ha         1 ZAA       0.104500
     62 C1           5.7920    -1.1490    -3.4820 c3         1 ZAA      -0.114400
@<TRIPOS>BOND
     1     1    16 1   
     2     1    24 1   
     3     1    37 1   
     4     1    38 1   
     5     2     3 ar  
     6     2     5 ar  
     7     2    39 1   
     8     3     4 ar  
     9     3    40 1   
    10     4     7 ar  
    11     4    25 1   
    12     5     6 ar  
    13     5    41 1   
    14     6     7 ar  
    15     6     8 1   
    16     7    42 1   
    17     8     9 1   
    18     8    43 1   
    19     8    44 1   
    20     9    10 1   
    21     9    28 2   
    22    10    13 1   
    23    10    26 2   
    24    11    12 ar  
    25    11    23 ar  
    26    11    45 1   
    27    12    20 ar  
    28    12    46 1   
    29    13    34 1   
    30    13    47 1   
    31    13    48 1   
    32    14    29 ar  
    33    14    33 ar  
    34    14    49 1   
    35    15    16 2   
    36    15    19 1   
    37    15    62 1   
    38    16    17 1   
    39    17    18 2   
    40    18    19 1   
    41    18    20 1   
    42    20    21 ar  
    43    21    22 ar  
    44    21    53 1   
    45    22    23 ar  
    46    22    54 1   
    47    23    55 1   
    48    24    25 1   
    49    24    56 1   
    50    24    57 1   
    51    26    27 1   
    52    27    28 1   
    53    27    29 1   
    54    29    30 ar  
    55    30    31 ar  
    56    30    58 1   
    57    31    32 ar  
    58    31    59 1   
    59    32    33 ar  
    60    32    60 1   
    61    33    61 1   
    62    34    35 1   
    63    34    36 1   
    64    50    62 1   
    65    51    62 1   
    66    52    62 1   
@<TRIPOS>SUBSTRUCTURE
     1 ZAA         1 TEMP              0 ****  ****    0 ROOT
