@<TRIPOS>MOLECULE
ZAE
   25    25     1     0     0
SMALL
No Charge or Current Charge


@<TRIPOS>ATOM
      1 N           34.5050     5.0340    11.8370 n7         1 ZAE      -0.860400
      2 CA          34.5330     5.7340    10.4980 c3         1 ZAE       0.047500
      3 C           33.7730     7.1260    10.4450 c          1 ZAE       0.725000
      4 O           33.7050     7.8130    11.4590 o          1 ZAE      -0.728000
      5 OXT         33.1870     7.4200     9.4100 o          1 ZAE      -0.728000
      6 CB          35.9880     5.8860     9.9630 c3         1 ZAE      -0.059100
      7 CG          36.9210     6.6890    10.8690 ca         1 ZAE      -0.038300
      8 CD1         37.7600     6.0370    11.7950 ca         1 ZAE      -0.101000
      9 CD2         36.9750     8.0940    10.7660 ca         1 ZAE      -0.101000
     10 CE1         38.6260     6.7780    12.6170 ca         1 ZAE      -0.119000
     11 CE2         37.8420     8.8360    11.5870 ca         1 ZAE      -0.119000
     12 CZ          38.6660     8.1780    12.5150 ca         1 ZAE      -0.134000
     13 C10         34.9130     3.6190    11.8640 c3         1 ZAE       0.167100
     14 H           35.0970     5.5700    12.4860 hn         1 ZAE       0.433000
     15 HA          34.0000     5.1000     9.7770 h1         1 ZAE       0.040700
     16 HB2         36.4120     4.8920     9.7790 hc         1 ZAE       0.034200
     17 HB3         35.9430     6.3600     8.9740 hc         1 ZAE       0.034200
     18 HD1         37.7440     4.9530    11.8780 ha         1 ZAE       0.116500
     19 HD2         36.3440     8.6130    10.0480 ha         1 ZAE       0.116500
     20 HE1         39.2680     6.2670    13.3310 ha         1 ZAE       0.092500
     21 HE2         37.8750     9.9200    11.5030 ha         1 ZAE       0.092500
     22 HZ          39.3370     8.7520    13.1500 ha         1 ZAE       0.089000
     23 H11         35.9630     3.4990    11.5710 h1         1 ZAE       0.000367
     24 H12         34.7950     3.2100    12.8760 h1         1 ZAE       0.000367
     25 H13         34.2920     3.0250    11.1800 h1         1 ZAE       0.000367
@<TRIPOS>BOND
     1     1     2 1   
     2     1    13 1   
     3     1    14 1   
     4     2     3 1   
     5     2     6 1   
     6     2    15 1   
     7     3     4 1   
     8     3     5 1   
     9     6     7 1   
    10     6    16 1   
    11     6    17 1   
    12     7     8 ar  
    13     7     9 ar  
    14     8    10 ar  
    15     8    18 1   
    16     9    11 ar  
    17     9    19 1   
    18    10    12 ar  
    19    10    20 1   
    20    11    12 ar  
    21    11    21 1   
    22    12    22 1   
    23    13    23 1   
    24    13    24 1   
    25    13    25 1   
@<TRIPOS>SUBSTRUCTURE
     1 ZAE         1 TEMP              0 ****  ****    0 ROOT
