@<TRIPOS>MOLECULE
ZAE
   25    25     1     0     0
SMALL
abcg2


@<TRIPOS>ATOM
      1 N           34.4830     4.9750    11.8120 n7         1 ZAE      -0.860400
      2 CA          34.5590     5.7130    10.5730 c3         1 ZAE       0.047500
      3 C           33.9240     7.1190    10.7070 c          1 ZAE       0.725000
      4 O           33.7480     7.5660    11.8560 o          1 ZAE      -0.728000
      5 OXT         33.6700     7.6990     9.6310 o          1 ZAE      -0.728000
      6 CB          35.9820     5.8590     9.9680 c3         1 ZAE      -0.059100
      7 CG          36.9080     6.6770    10.8190 ca         1 ZAE      -0.038300
      8 CD1         37.6490     6.0930    11.8460 ca         1 ZAE      -0.101000
      9 CD2         37.0260     8.0530    10.6250 ca         1 ZAE      -0.101000
     10 CE1         38.4800     6.8590    12.6550 ca         1 ZAE      -0.119000
     11 CE2         37.8560     8.8230    11.4270 ca         1 ZAE      -0.119000
     12 CZ          38.5860     8.2280    12.4490 ca         1 ZAE      -0.134000
     13 C10         34.9520     3.6110    11.7620 c3         1 ZAE       0.167100
     14 H           34.9330     5.4910    12.5560 hn         1 ZAE       0.433000
     15 HA          33.9770     5.1520     9.8300 h1         1 ZAE       0.040700
     16 HB2         36.4110     4.8670     9.8040 hc         1 ZAE       0.034200
     17 HB3         35.8820     6.3160     8.9820 hc         1 ZAE       0.034200
     18 HD1         37.5910     5.0230    12.0070 ha         1 ZAE       0.116500
     19 HD2         36.4520     8.5240     9.8360 ha         1 ZAE       0.116500
     20 HE1         39.0480     6.3840    13.4440 ha         1 ZAE       0.092500
     21 HE2         37.9340     9.8890    11.2540 ha         1 ZAE       0.092500
     22 HZ          39.2360     8.8260    13.0750 ha         1 ZAE       0.089000
     23 H11         36.0120     3.4740    11.5040 h1         1 ZAE       0.000367
     24 H12         34.7930     3.1340    12.7300 h1         1 ZAE       0.000367
     25 H13         34.3720     3.0490    11.0250 h1         1 ZAE       0.000367
@<TRIPOS>BOND
     1     1     2 1   
     2     1    13 1   
     3     1    14 1   
     4     2     3 1   
     5     2     6 1   
     6     2    15 1   
     7     3     4 1   
     8     3     5 1   
     9     6     7 1   
    10     6    16 1   
    11     6    17 1   
    12     7     8 ar  
    13     7     9 ar  
    14     8    10 ar  
    15     8    18 1   
    16     9    11 ar  
    17     9    19 1   
    18    10    12 ar  
    19    10    20 1   
    20    11    12 ar  
    21    11    21 1   
    22    12    22 1   
    23    13    23 1   
    24    13    24 1   
    25    13    25 1   
@<TRIPOS>SUBSTRUCTURE
     1 ZAE         1 TEMP              0 ****  ****    0 ROOT
