@<TRIPOS>MOLECULE
ZAF
   58    59     1     0     0
SMALL
bcc


@<TRIPOS>ATOM
      1 C1           0.3030     2.8510    -4.2280 c          1 ZAF       0.930600
      2 O1A         -0.6990     3.0540    -4.9330 o          1 ZAF      -0.843800
      3 O1B          1.1070     3.7030    -3.7930 o          1 ZAF      -0.843800
      4 C2A          1.8310     0.9310    -4.7570 c3         1 ZAF      -0.039100
      5 C2           0.6630     1.3920    -3.8810 c3         1 ZAF       0.074100
      6 CP1          2.2140    -0.4960    -4.4900 ca         1 ZAF      -0.017300
      7 CP2          1.9250    -1.5010    -5.4070 ca         1 ZAF      -0.127500
      8 CP3          2.2600    -2.8250    -5.1490 ca         1 ZAF      -0.142500
      9 CP4          2.8830    -3.1650    -3.9570 ca         1 ZAF      -0.171000
     10 CP5          3.1720    -2.1710    -3.0290 ca         1 ZAF      -0.142500
     11 CP6          2.8420    -0.8510    -3.2970 ca         1 ZAF      -0.127500
     12 O3          -0.4080     0.4980    -4.0860 os         1 ZAF      -0.561200
     13 P3          -1.5060     0.2800    -2.8830 p5         1 ZAF       1.242600
     14 O3A         -2.6850    -0.3980    -3.5270 o          1 ZAF      -0.818000
     15 O3B         -1.6860     1.5410    -2.0850 o          1 ZAF      -0.818000
     16 C4          -0.6110    -0.9450    -1.8100 c3         1 ZAF      -0.093500
     17 C4A         -0.5280    -2.3360    -2.4110 c3         1 ZAF      -0.063100
     18 N5          -1.2620    -0.9680    -0.5120 ns         1 ZAF      -0.509900
     19 C6          -0.8580    -0.2290     0.5260 c          1 ZAF       0.664100
     20 O6           0.2310     0.3260     0.6000 o          1 ZAF      -0.627100
     21 C7          -1.8840    -0.0910     1.6450 c3         1 ZAF       0.032700
     22 C7A         -2.8040     1.0920     1.3330 c3         1 ZAF      -0.109100
     23 N8          -1.1650     0.0800     2.8850 ns         1 ZAF      -0.538900
     24 C9          -1.7330    -0.1280     4.0820 c          1 ZAF       0.748100
     25 O9          -2.8550    -0.5560     4.2650 o          1 ZAF      -0.623000
     26 O10         -0.8830     0.1840     5.0700 os         1 ZAF      -0.439900
     27 C11         -1.3680     0.0590     6.4090 c3         1 ZAF       0.207700
     28 C1X         -0.2890     0.5600     7.3230 ca         1 ZAF      -0.083300
     29 C2X          0.1260     1.8890     7.2580 ca         1 ZAF      -0.105000
     30 C3X          1.1190     2.3580     8.1040 ca         1 ZAF      -0.137500
     31 C4X          1.7060     1.5060     9.0320 ca         1 ZAF      -0.130000
     32 C5X          1.2960     0.1820     9.1050 ca         1 ZAF      -0.137500
     33 C6X          0.3060    -0.2870     8.2500 ca         1 ZAF      -0.105000
     34 H2A1         1.5640     1.0500    -5.8110 hc         1 ZAF       0.046200
     35 H2A2         2.6780     1.5950    -4.5680 hc         1 ZAF       0.046200
     36 H2           1.0000     1.3660    -2.8370 h1         1 ZAF       0.017700
     37 HP2          1.4340    -1.2420    -6.3390 ha         1 ZAF       0.135000
     38 HP3          2.0290    -3.5910    -5.8790 ha         1 ZAF       0.103500
     39 HP4          3.1410    -4.1950    -3.7490 ha         1 ZAF       0.097000
     40 HP5          3.6580    -2.4270    -2.0960 ha         1 ZAF       0.103500
     41 HP6          3.0750    -0.0830    -2.5670 ha         1 ZAF       0.135000
     42 H4           0.4030    -0.5770    -1.6430 h1         1 ZAF       0.081700
     43 H4A1        -1.5180    -2.7460    -2.6120 hc         1 ZAF       0.023033
     44 H4A2         0.0240    -2.3050    -3.3500 hc         1 ZAF       0.023033
     45 H4A3         0.0000    -3.0180    -1.7420 hc         1 ZAF       0.023033
     46 HN5         -2.1960    -1.3490    -0.4790 hn         1 ZAF       0.296500
     47 H7          -2.4820    -1.0040     1.7070 h1         1 ZAF       0.060700
     48 H7A1        -2.2340     2.0200     1.3020 hc         1 ZAF       0.057033
     49 H7A2        -3.2870     0.9650     0.3650 hc         1 ZAF       0.057033
     50 H7A3        -3.5760     1.1810     2.0950 hc         1 ZAF       0.057033
     51 HN8         -0.2580     0.5190     2.8320 hn         1 ZAF       0.351500
     52 H111        -2.2790     0.6490     6.5330 h1         1 ZAF       0.048700
     53 H112        -1.6080    -0.9830     6.6340 h1         1 ZAF       0.048700
     54 H3          -0.3310     2.5640     6.5440 ha         1 ZAF       0.136500
     55 H5           1.4330     3.3920     8.0430 ha         1 ZAF       0.124500
     56 H6           2.4790     1.8740     9.6940 ha         1 ZAF       0.120000
     57 H8           1.7490    -0.4880     9.8240 ha         1 ZAF       0.124500
     58 H9          -0.0050    -1.3230     8.3090 ha         1 ZAF       0.136500
@<TRIPOS>BOND
     1     1     2 1   
     2     1     3 1   
     3     1     5 1   
     4     4     5 1   
     5     4     6 1   
     6     4    34 1   
     7     4    35 1   
     8     5    12 1   
     9     5    36 1   
    10     6     7 ar  
    11     6    11 ar  
    12     7     8 ar  
    13     7    37 1   
    14     8     9 ar  
    15     8    38 1   
    16     9    10 ar  
    17     9    39 1   
    18    10    11 ar  
    19    10    40 1   
    20    11    41 1   
    21    12    13 1   
    22    13    14 1   
    23    13    15 1   
    24    13    16 1   
    25    16    17 1   
    26    16    18 1   
    27    16    42 1   
    28    17    43 1   
    29    17    44 1   
    30    17    45 1   
    31    18    19 1   
    32    18    46 1   
    33    19    20 2   
    34    19    21 1   
    35    21    22 1   
    36    21    23 1   
    37    21    47 1   
    38    22    48 1   
    39    22    49 1   
    40    22    50 1   
    41    23    24 1   
    42    23    51 1   
    43    24    25 2   
    44    24    26 1   
    45    26    27 1   
    46    27    28 1   
    47    27    52 1   
    48    27    53 1   
    49    28    29 ar  
    50    28    33 ar  
    51    29    30 ar  
    52    29    54 1   
    53    30    31 ar  
    54    30    55 1   
    55    31    32 ar  
    56    31    56 1   
    57    32    33 ar  
    58    32    57 1   
    59    33    58 1   
@<TRIPOS>SUBSTRUCTURE
     1 ZAF         1 TEMP              0 ****  ****    0 ROOT
