@<TRIPOS>MOLECULE
ZAF
   58    59     1     0     0
SMALL
No Charge or Current Charge


@<TRIPOS>ATOM
      1 C1           1.0220     3.0940    -3.9370 c          1 ZAF       0.720000
      2 O1A          0.2490     3.5850    -4.7530 o          1 ZAF      -0.738500
      3 O1B          1.8150     3.7740    -3.2960 o          1 ZAF      -0.738500
      4 C2A          2.2510     0.8470    -4.2670 c3         1 ZAF      -0.039100
      5 C2           1.0000     1.5390    -3.6710 c3         1 ZAF       0.097300
      6 CP1          2.3630    -0.6300    -3.8990 ca         1 ZAF      -0.017300
      7 CP2          2.1560    -1.6270    -4.8730 ca         1 ZAF      -0.109500
      8 CP3          2.2610    -2.9860    -4.5310 ca         1 ZAF      -0.124500
      9 CP4          2.5730    -3.3570    -3.2120 ca         1 ZAF      -0.153000
     10 CP5          2.7840    -2.3690    -2.2370 ca         1 ZAF      -0.124500
     11 CP6          2.6830    -1.0100    -2.5800 ca         1 ZAF      -0.109500
     12 O3          -0.1710     0.8700    -4.2160 os         1 ZAF      -0.584400
     13 P3          -1.5080     0.7120    -3.3170 p5         1 ZAF       1.400400
     14 O3A         -2.6790     0.3170    -4.1620 o          1 ZAF      -0.818000
     15 O3B         -1.7940     1.9410    -2.5130 o          1 ZAF      -0.818000
     16 C4          -1.0000    -0.7200    -2.2100 c3         1 ZAF      -0.251300
     17 C4A         -1.0870    -2.0930    -2.9110 c3         1 ZAF      -0.063100
     18 N5          -1.6850    -0.7690    -0.8860 ns         1 ZAF      -0.442900
     19 C6          -1.1960    -0.2190     0.2880 c          1 ZAF       0.597100
     20 O6          -0.1040     0.3390     0.3450 o          1 ZAF      -0.627100
     21 C7          -2.1310    -0.3760     1.5250 c3         1 ZAF       0.032700
     22 C7A         -3.4350     0.4420     1.3690 c3         1 ZAF      -0.109100
     23 N8          -1.4150     0.0050     2.7590 ns         1 ZAF      -0.471900
     24 C9          -1.7880    -0.3280     4.0290 c          1 ZAF       0.632100
     25 O9          -2.7620    -1.0030     4.3230 o          1 ZAF      -0.574000
     26 O10         -0.8860     0.1920     4.9020 os         1 ZAF      -0.463100
     27 C11         -1.0960    -0.0590     6.3010 c3         1 ZAF       0.230900
     28 C1X          0.0240     0.6130     7.0850 ca         1 ZAF      -0.083300
     29 C2X         -0.1170     1.9430     7.5290 ca         1 ZAF      -0.087000
     30 C3X          0.9160     2.5620     8.2540 ca         1 ZAF      -0.119500
     31 C4X          2.0970     1.8560     8.5390 ca         1 ZAF      -0.112000
     32 C5X          2.2440     0.5310     8.0980 ca         1 ZAF      -0.119500
     33 C6X          1.2120    -0.0890     7.3730 ca         1 ZAF      -0.087000
     34 H2A1         2.2440     0.9760    -5.3560 hc         1 ZAF       0.046200
     35 H2A2         3.1460     1.3710    -3.9090 hc         1 ZAF       0.046200
     36 H2           1.0340     1.4120    -2.5810 h1         1 ZAF       0.017700
     37 HP2          1.9080    -1.3480    -5.8950 ha         1 ZAF       0.117000
     38 HP3          2.0960    -3.7510    -5.2860 ha         1 ZAF       0.085500
     39 HP4          2.6510    -4.4090    -2.9470 ha         1 ZAF       0.079000
     40 HP5          3.0260    -2.6550    -1.2160 ha         1 ZAF       0.085500
     41 HP6          2.8470    -0.2500    -1.8190 ha         1 ZAF       0.117000
     42 H4           0.0600    -0.5190    -2.0300 h1         1 ZAF       0.081700
     43 H4A1        -2.1300    -2.3670    -3.1080 hc         1 ZAF       0.023033
     44 H4A2        -0.5520    -2.0730    -3.8670 hc         1 ZAF       0.023033
     45 H4A3        -0.6360    -2.8740    -2.2870 hc         1 ZAF       0.023033
     46 HN5         -2.6000    -1.2040    -0.8310 hn         1 ZAF       0.296500
     47 H7          -2.3910    -1.4410     1.5950 h1         1 ZAF       0.060700
     48 H7A1        -3.2120     1.5120     1.2810 hc         1 ZAF       0.057033
     49 H7A2        -3.9880     0.1330     0.4740 hc         1 ZAF       0.057033
     50 H7A3        -4.0930     0.2980     2.2340 hc         1 ZAF       0.057033
     51 HN8         -0.5610     0.5460     2.6770 hn         1 ZAF       0.351500
     52 H111        -2.0640     0.3440     6.6270 h1         1 ZAF       0.048700
     53 H112        -1.0920    -1.1370     6.5080 h1         1 ZAF       0.048700
     54 H3          -1.0270     2.4980     7.3090 ha         1 ZAF       0.118500
     55 H5           0.8020     3.5890     8.5940 ha         1 ZAF       0.106500
     56 H6           2.8960     2.3360     9.1000 ha         1 ZAF       0.102000
     57 H8           3.1590    -0.0170     8.3170 ha         1 ZAF       0.106500
     58 H9           1.3350    -1.1160     7.0320 ha         1 ZAF       0.118500
@<TRIPOS>BOND
     1     1     2 1   
     2     1     3 1   
     3     1     5 1   
     4     4     5 1   
     5     4     6 1   
     6     4    34 1   
     7     4    35 1   
     8     5    12 1   
     9     5    36 1   
    10     6     7 ar  
    11     6    11 ar  
    12     7     8 ar  
    13     7    37 1   
    14     8     9 ar  
    15     8    38 1   
    16     9    10 ar  
    17     9    39 1   
    18    10    11 ar  
    19    10    40 1   
    20    11    41 1   
    21    12    13 1   
    22    13    14 1   
    23    13    15 1   
    24    13    16 1   
    25    16    17 1   
    26    16    18 1   
    27    16    42 1   
    28    17    43 1   
    29    17    44 1   
    30    17    45 1   
    31    18    19 1   
    32    18    46 1   
    33    19    20 2   
    34    19    21 1   
    35    21    22 1   
    36    21    23 1   
    37    21    47 1   
    38    22    48 1   
    39    22    49 1   
    40    22    50 1   
    41    23    24 1   
    42    23    51 1   
    43    24    25 2   
    44    24    26 1   
    45    26    27 1   
    46    27    28 1   
    47    27    52 1   
    48    27    53 1   
    49    28    29 ar  
    50    28    33 ar  
    51    29    30 ar  
    52    29    54 1   
    53    30    31 ar  
    54    30    55 1   
    55    31    32 ar  
    56    31    56 1   
    57    32    33 ar  
    58    32    57 1   
    59    33    58 1   
@<TRIPOS>SUBSTRUCTURE
     1 ZAF         1 TEMP              0 ****  ****    0 ROOT
