@<TRIPOS>MOLECULE
ZAH
   42    43     1     0     0
SMALL
No Charge or Current Charge


@<TRIPOS>ATOM
      1 C1           1.8410     0.4330    -4.5510 c          1 ZAH       0.728000
      2 O2           1.6260     1.6370    -4.4700 o          1 ZAH      -0.721000
      3 O20          2.9700    -0.0070    -4.7260 o          1 ZAH      -0.721000
      4 C3           0.6530    -0.5810    -4.4070 c5         1 ZAH      -0.032300
      5 C4          -0.2260    -0.5430    -5.6900 c5         1 ZAH      -0.077400
      6 C5          -1.5420    -1.1750    -5.1770 c5         1 ZAH      -0.098400
      7 C6          -1.7480    -0.4420    -3.8260 c5         1 ZAH       0.107000
      8 N7          -0.3560    -0.2700    -3.3510 n          1 ZAH      -0.369800
      9 C8          -0.0080    -0.0700    -1.9940 c          1 ZAH       0.602100
     10 O9           1.1460    -0.2570    -1.6190 o          1 ZAH      -0.613100
     11 C10         -1.1070     0.4320    -0.9990 c3         1 ZAH       0.042700
     12 C11         -1.5380     1.8900    -1.2930 c3         1 ZAH      -0.101100
     13 N14         -0.6340     0.3020     0.3960 ns         1 ZAH      -0.481900
     14 C15         -1.4290     0.2930     1.5040 c          1 ZAH       0.635100
     15 O16         -2.6470     0.3730     1.4990 o          1 ZAH      -0.575000
     16 O17         -0.6440     0.1540     2.6050 os         1 ZAH      -0.458100
     17 C18         -1.2970     0.1100     3.8840 c3         1 ZAH       0.231900
     18 C19         -0.2330    -0.0460     4.9630 ca         1 ZAH      -0.090300
     19 C20          0.3530     1.0920     5.5530 ca         1 ZAH      -0.084000
     20 C21          1.3340     0.9470     6.5500 ca         1 ZAH      -0.118000
     21 C22          1.7350    -0.3350     6.9620 ca         1 ZAH      -0.105000
     22 C23          1.1560    -1.4720     6.3760 ca         1 ZAH      -0.118000
     23 C24          0.1750    -1.3290     5.3790 ca         1 ZAH      -0.084000
     24 H3           1.0690    -1.5840    -4.2440 h1         1 ZAH       0.052700
     25 H4C1         0.2190    -1.1020    -6.5210 hc         1 ZAH       0.048200
     26 H4C2        -0.3960     0.4840    -6.0380 hc         1 ZAH       0.048200
     27 H5C1        -1.4250    -2.2550    -5.0250 hc         1 ZAH       0.031200
     28 H5C2        -2.3810    -1.0290    -5.8650 hc         1 ZAH       0.031200
     29 H6C1        -2.3610    -1.0360    -3.1360 h1         1 ZAH       0.033200
     30 H6C2        -2.2310     0.5320    -3.9790 h1         1 ZAH       0.033200
     31 H10         -1.9790    -0.2230    -1.1170 h1         1 ZAH       0.066700
     32 H111        -0.6910     2.5740    -1.1670 hc         1 ZAH       0.047700
     33 H112        -1.9120     1.9990    -2.3160 hc         1 ZAH       0.047700
     34 H113        -2.3360     2.2050    -0.6100 hc         1 ZAH       0.047700
     35 H14          0.3600     0.1980     0.5630 hn         1 ZAH       0.356500
     36 H181        -1.8670     1.0320     4.0620 h1         1 ZAH       0.050200
     37 H182        -1.9970    -0.7340     3.9350 h1         1 ZAH       0.050200
     38 HA           0.0500     2.0880     5.2370 ha         1 ZAH       0.115500
     39 H21          1.7830     1.8290     7.0020 ha         1 ZAH       0.109000
     40 H22          2.4940    -0.4460     7.7330 ha         1 ZAH       0.106000
     41 H23          1.4670    -2.4650     6.6930 ha         1 ZAH       0.109000
     42 H24         -0.2670    -2.2150     4.9280 ha         1 ZAH       0.115500
@<TRIPOS>BOND
     1     1     2 1   
     2     1     3 1   
     3     1     4 1   
     4     4     5 1   
     5     4     8 1   
     6     4    24 1   
     7     5     6 1   
     8     5    25 1   
     9     5    26 1   
    10     6     7 1   
    11     6    27 1   
    12     6    28 1   
    13     7     8 1   
    14     7    29 1   
    15     7    30 1   
    16     8     9 1   
    17     9    10 2   
    18     9    11 1   
    19    11    12 1   
    20    11    13 1   
    21    11    31 1   
    22    12    32 1   
    23    12    33 1   
    24    12    34 1   
    25    13    14 1   
    26    13    35 1   
    27    14    15 2   
    28    14    16 1   
    29    16    17 1   
    30    17    18 1   
    31    17    36 1   
    32    17    37 1   
    33    18    19 ar  
    34    18    23 ar  
    35    19    20 ar  
    36    19    38 1   
    37    20    21 ar  
    38    20    39 1   
    39    21    22 ar  
    40    21    40 1   
    41    22    23 ar  
    42    22    41 1   
    43    23    42 1   
@<TRIPOS>SUBSTRUCTURE
     1 ZAH         1 TEMP              0 ****  ****    0 ROOT
