@<TRIPOS>MOLECULE
ZAH
   42    43     1     0     0
SMALL
bcc


@<TRIPOS>ATOM
      1 C1           1.5940     0.5170    -4.5460 c          1 ZAH       0.938600
      2 O2           1.1840     1.6780    -4.3830 o          1 ZAH      -0.826300
      3 O20          2.6860     0.1540    -5.0290 o          1 ZAH      -0.826300
      4 C3           0.6220    -0.6280    -4.1970 c5         1 ZAH      -0.032300
      5 C4          -0.2440    -0.9890    -5.4150 c5         1 ZAH      -0.077400
      6 C5          -1.6050    -1.3330    -4.8200 c5         1 ZAH      -0.098400
      7 C6          -1.7250    -0.3410    -3.6730 c5         1 ZAH       0.107000
      8 N7          -0.3580    -0.2640    -3.1810 n          1 ZAH      -0.436800
      9 C8           0.0530     0.1290    -1.9760 c          1 ZAH       0.669100
     10 O9           1.2340     0.0920    -1.6400 o          1 ZAH      -0.613100
     11 C10         -1.0000     0.6730    -1.0140 c3         1 ZAH       0.042700
     12 C11         -1.3040     2.1320    -1.3570 c3         1 ZAH      -0.101100
     13 N14         -0.4890     0.5260     0.3270 ns         1 ZAH      -0.548900
     14 C15         -1.2900     0.3670     1.3910 c          1 ZAH       0.751100
     15 O16         -2.5050     0.3390     1.3580 o          1 ZAH      -0.624000
     16 O17         -0.5710     0.2330     2.5130 os         1 ZAH      -0.434900
     17 C18         -1.3000     0.0060     3.7250 c3         1 ZAH       0.208700
     18 C19         -0.2880    -0.1410     4.8200 ca         1 ZAH      -0.090300
     19 C20          0.0700     0.9490     5.6070 ca         1 ZAH      -0.102000
     20 C21          1.0240     0.8140     6.6070 ca         1 ZAH      -0.136000
     21 C22          1.6330    -0.4150     6.8250 ca         1 ZAH      -0.123000
     22 C23          1.2830    -1.5080     6.0420 ca         1 ZAH      -0.136000
     23 C24          0.3270    -1.3690     5.0460 ca         1 ZAH      -0.102000
     24 H3           1.1850    -1.5050    -3.8620 h1         1 ZAH       0.052700
     25 H4C1         0.1900    -1.8000    -5.9970 hc         1 ZAH       0.048200
     26 H4C2        -0.3460    -0.1260    -6.0780 hc         1 ZAH       0.048200
     27 H5C1        -1.6110    -2.3530    -4.4300 hc         1 ZAH       0.031200
     28 H5C2        -2.4220    -1.2400    -5.5350 hc         1 ZAH       0.031200
     29 H6C1        -2.4160    -0.6790    -2.9020 h1         1 ZAH       0.033200
     30 H6C2        -2.0690     0.6330    -4.0370 h1         1 ZAH       0.033200
     31 H10         -1.9190     0.0900    -1.0870 h1         1 ZAH       0.066700
     32 H111        -0.4040     2.7410    -1.2760 hc         1 ZAH       0.047700
     33 H112        -1.6900     2.2360    -2.3700 hc         1 ZAH       0.047700
     34 H113        -2.0530     2.5270    -0.6710 hc         1 ZAH       0.047700
     35 H14          0.5140     0.5370     0.4430 hn         1 ZAH       0.356500
     36 H181        -1.9720     0.8440     3.9240 h1         1 ZAH       0.050200
     37 H182        -1.9030    -0.8990     3.6360 h1         1 ZAH       0.050200
     38 HA          -0.4050     1.9100     5.4430 ha         1 ZAH       0.133500
     39 H21          1.2910     1.6670     7.2170 ha         1 ZAH       0.127000
     40 H22          2.3760    -0.5210     7.6050 ha         1 ZAH       0.124000
     41 H23          1.7520    -2.4690     6.2090 ha         1 ZAH       0.127000
     42 H24          0.0520    -2.2260     4.4410 ha         1 ZAH       0.133500
@<TRIPOS>BOND
     1     1     2 1   
     2     1     3 1   
     3     1     4 1   
     4     4     5 1   
     5     4     8 1   
     6     4    24 1   
     7     5     6 1   
     8     5    25 1   
     9     5    26 1   
    10     6     7 1   
    11     6    27 1   
    12     6    28 1   
    13     7     8 1   
    14     7    29 1   
    15     7    30 1   
    16     8     9 1   
    17     9    10 2   
    18     9    11 1   
    19    11    12 1   
    20    11    13 1   
    21    11    31 1   
    22    12    32 1   
    23    12    33 1   
    24    12    34 1   
    25    13    14 1   
    26    13    35 1   
    27    14    15 2   
    28    14    16 1   
    29    16    17 1   
    30    17    18 1   
    31    17    36 1   
    32    17    37 1   
    33    18    19 ar  
    34    18    23 ar  
    35    19    20 ar  
    36    19    38 1   
    37    20    21 ar  
    38    20    39 1   
    39    21    22 ar  
    40    21    40 1   
    41    22    23 ar  
    42    22    41 1   
    43    23    42 1   
@<TRIPOS>SUBSTRUCTURE
     1 ZAH         1 TEMP              0 ****  ****    0 ROOT
