@<TRIPOS>MOLECULE
ZAL
   28    28     1     0     0
SMALL
abcg2


@<TRIPOS>ATOM
      1 C1          19.4080    15.0050    24.5750 c6         1 ZAL      -0.048700
      2 C2          19.7380    15.2870    26.0410 c6         1 ZAL      -0.069400
      3 C3          21.1570    15.8110    26.2300 c6         1 ZAL      -0.071900
      4 C4          22.1810    14.8520    25.6340 c6         1 ZAL      -0.071400
      5 C5          21.8750    14.5740    24.1680 c6         1 ZAL      -0.071900
      6 C6          20.4510    14.0610    23.9740 c6         1 ZAL      -0.069400
      7 N           16.1150    13.6040    23.0470 n8         1 ZAL      -0.982200
      8 CA          17.4540    14.1850    23.0350 c3         1 ZAL       0.014500
      9 CB          17.9850    14.4620    24.4520 c3         1 ZAL      -0.079400
     10 C           17.4460    15.4940    22.2160 c          1 ZAL       0.725000
     11 O           16.4480    16.2300    22.3660 o          1 ZAL      -0.735500
     12 H1          19.4680    15.9560    24.0320 hc         1 ZAL       0.081700
     13 H2          19.0170    16.0010    26.4510 hc         1 ZAL       0.034950
     14 H2A         19.6170    14.3620    26.6190 hc         1 ZAL       0.034950
     15 H3          21.2530    16.7890    25.7450 hc         1 ZAL       0.029700
     16 H3A         21.3610    15.9730    27.2920 hc         1 ZAL       0.029700
     17 H4          23.1910    15.2550    25.7430 hc         1 ZAL       0.020700
     18 H4A         22.1610    13.9100    26.1940 hc         1 ZAL       0.020700
     19 H5          22.0040    15.4980    23.5930 hc         1 ZAL       0.029700
     20 H5A         22.5900    13.8560    23.7590 hc         1 ZAL       0.029700
     21 H6          20.3510    13.0740    24.4420 hc         1 ZAL       0.034950
     22 H6A         20.2580    13.9210    22.9090 hc         1 ZAL       0.034950
     23 HA          18.1210    13.4710    22.5430 h1         1 ZAL       0.044700
     24 HB          17.9230    13.5300    25.0300 hc         1 ZAL       0.012200
     25 HBA         17.2940    15.1630    24.9370 hc         1 ZAL       0.012200
     26 OXT         18.4460    15.7300    21.5080 o          1 ZAL      -0.735500
     27 HN          16.0660    12.8770    23.7510 hn         1 ZAL       0.372000
     28 HNA         15.4690    14.3270    23.3440 hn         1 ZAL       0.372000
@<TRIPOS>BOND
     1     1     2 1   
     2     1     6 1   
     3     1     9 1   
     4     1    12 1   
     5     2     3 1   
     6     2    13 1   
     7     2    14 1   
     8     3     4 1   
     9     3    15 1   
    10     3    16 1   
    11     4     5 1   
    12     4    17 1   
    13     4    18 1   
    14     5     6 1   
    15     5    19 1   
    16     5    20 1   
    17     6    21 1   
    18     6    22 1   
    19     7     8 1   
    20     7    27 1   
    21     7    28 1   
    22     8     9 1   
    23     8    10 1   
    24     8    23 1   
    25     9    24 1   
    26     9    25 1   
    27    10    11 1   
    28    10    26 1   
@<TRIPOS>SUBSTRUCTURE
     1 ZAL         1 TEMP              0 ****  ****    0 ROOT
