@<TRIPOS>MOLECULE
ZAL
   28    28     1     0     0
SMALL
No Charge or Current Charge


@<TRIPOS>ATOM
      1 C1          19.3870    14.9890    24.6030 c6         1 ZAL      -0.048700
      2 C2          19.7240    15.2580    26.0980 c6         1 ZAL      -0.069400
      3 C3          21.1550    15.8240    26.2710 c6         1 ZAL      -0.071900
      4 C4          22.2090    14.8830    25.6400 c6         1 ZAL      -0.071400
      5 C5          21.8890    14.6120    24.1510 c6         1 ZAL      -0.071900
      6 C6          20.4570    14.0480    23.9740 c6         1 ZAL      -0.069400
      7 N           16.0440    13.5900    23.0600 n8         1 ZAL      -0.982200
      8 CA          17.4140    14.2170    23.0070 c3         1 ZAL       0.014500
      9 CB          17.9340    14.4300    24.4580 c3         1 ZAL      -0.079400
     10 C           17.5490    15.5310    22.1250 c          1 ZAL       0.725000
     11 O           16.8920    16.5170    22.4380 o          1 ZAL      -0.735500
     12 H1          19.4140    15.9520    24.0740 hc         1 ZAL       0.081700
     13 H2          19.0000    15.9650    26.5250 hc         1 ZAL       0.034950
     14 H2A         19.6270    14.3280    26.6750 hc         1 ZAL       0.034950
     15 H3          21.2190    16.8170    25.8050 hc         1 ZAL       0.029700
     16 H3A         21.3740    15.9650    27.3380 hc         1 ZAL       0.029700
     17 H4          23.2090    15.3270    25.7320 hc         1 ZAL       0.020700
     18 H4A         22.2350    13.9330    26.1920 hc         1 ZAL       0.020700
     19 H5          21.9940    15.5420    23.5750 hc         1 ZAL       0.029700
     20 H5A         22.6210    13.9050    23.7360 hc         1 ZAL       0.029700
     21 H6          20.3950    13.0520    24.4340 hc         1 ZAL       0.034950
     22 H6A         20.2630    13.9090    22.9020 hc         1 ZAL       0.034950
     23 HA          18.0680    13.4680    22.5380 h1         1 ZAL       0.044700
     24 HB          17.8660    13.4750    24.9960 hc         1 ZAL       0.012200
     25 HBA         17.2420    15.1100    24.9700 hc         1 ZAL       0.012200
     26 OXT         18.2420    15.4860    21.1160 o          1 ZAL      -0.735500
     27 HN          16.0420    12.8430    23.7640 hn         1 ZAL       0.372000
     28 HNA         15.3820    14.2820    23.4330 hn         1 ZAL       0.372000
@<TRIPOS>BOND
     1     1     2 1   
     2     1     6 1   
     3     1     9 1   
     4     1    12 1   
     5     2     3 1   
     6     2    13 1   
     7     2    14 1   
     8     3     4 1   
     9     3    15 1   
    10     3    16 1   
    11     4     5 1   
    12     4    17 1   
    13     4    18 1   
    14     5     6 1   
    15     5    19 1   
    16     5    20 1   
    17     6    21 1   
    18     6    22 1   
    19     7     8 1   
    20     7    27 1   
    21     7    28 1   
    22     8     9 1   
    23     8    10 1   
    24     8    23 1   
    25     9    24 1   
    26     9    25 1   
    27    10    11 1   
    28    10    26 1   
@<TRIPOS>SUBSTRUCTURE
     1 ZAL         1 TEMP              0 ****  ****    0 ROOT
