@<TRIPOS>MOLECULE
ZAM
   54    56     1     0     0
SMALL
No Charge or Current Charge


@<TRIPOS>ATOM
      1 C13          0.5310    -0.6580     5.1600 c3         1 ZAM       0.151300
      2 C21          0.6230     1.7690     5.8500 c          1 ZAM       0.605100
      3 C27          1.1150     0.6530     0.3320 c          1 ZAM       0.624700
      4 C30          1.1650     1.5420    -2.0080 c3         1 ZAM       0.147200
      5 C33         -1.0280     0.9010    -0.9580 c3         1 ZAM       0.093300
      6 C01         -0.5760    -2.0470     3.2830 ca         1 ZAM       0.322000
      7 C02          0.2220    -0.9560     3.6920 ca         1 ZAM      -0.171300
      8 C03          0.7620    -0.0950     2.7140 ca         1 ZAM      -0.007000
      9 C04          0.5010    -0.2910     1.3430 ca         1 ZAM      -0.198600
     10 C05         -0.2820    -1.3970     0.9520 ca         1 ZAM      -0.039000
     11 C06         -0.8170    -2.2610     1.9200 ca         1 ZAM      -0.197000
     12 N16         -0.1190     0.5820     5.6440 n          1 ZAM      -0.417800
     13 C17         -1.5850     0.5340     5.8540 c3         1 ZAM       0.091300
     14 O22          1.8280     1.8100     5.6420 o          1 ZAM      -0.597100
     15 C23         -0.1080     3.0190     6.3470 c3         1 ZAM      -0.176100
     16 N28          0.4530     0.8600    -0.8990 n          1 ZAM      -0.417800
     17 O29          2.2080     1.1620     0.5500 o          1 ZAM      -0.605100
     18 C37          0.7030     1.0470    -3.3570 cc         1 ZAM      -0.083300
     19 C38          0.0630     1.7300    -4.3820 cd         1 ZAM      -0.232200
     20 C39         -0.2120     0.8480    -5.4870 ca         1 ZAM      -0.099800
     21 C40          0.2700    -0.3770    -5.1150 ca         1 ZAM      -0.044200
     22 N41          0.8240    -0.2740    -3.8430 na         1 ZAM      -0.075700
     23 C43          1.4150    -1.4370    -3.1590 c3         1 ZAM       0.059900
     24 C47         -0.8330     1.0710    -6.7220 ca         1 ZAM      -0.061000
     25 C48         -0.9530    -0.0300    -7.5980 ca         1 ZAM      -0.142000
     26 C51          0.1620    -1.4890    -5.9660 ca         1 ZAM      -0.127000
     27 C52         -0.4590    -1.3030    -7.2220 ca         1 ZAM      -0.094000
     28 H131         1.6200    -0.5870     5.2790 h1         1 ZAM       0.060200
     29 H132         0.2160    -1.4860     5.8060 h1         1 ZAM       0.060200
     30 H301         0.9940     2.6240    -1.9330 h1         1 ZAM       0.072200
     31 H302         2.2450     1.3660    -1.9290 h1         1 ZAM       0.072200
     32 H331        -1.4580     0.9520     0.0500 h1         1 ZAM       0.042033
     33 H332        -1.3580     1.7880    -1.5150 h1         1 ZAM       0.042033
     34 H333        -1.4040     0.0070    -1.4710 h1         1 ZAM       0.042033
     35 H03          1.3800     0.7440     3.0270 ha         1 ZAM       0.131000
     36 H05         -0.4600    -1.6100    -0.1000 ha         1 ZAM       0.116000
     37 H06         -1.4190    -3.1070     1.6010 ha         1 ZAM       0.115000
     38 H101        -1.5790    -3.7730     3.8360 hn         1 ZAM       0.456000
     39 H102        -0.8520    -2.9060     5.1550 hn         1 ZAM       0.456000
     40 H171        -2.0810     1.2450     5.1810 h1         1 ZAM       0.040033
     41 H172        -1.9700    -0.4720     5.6420 h1         1 ZAM       0.040033
     42 H173        -1.8230     0.7870     6.8940 h1         1 ZAM       0.040033
     43 H231         0.5660     3.8740     6.4770 hc         1 ZAM       0.061367
     44 H232        -0.9250     3.2600     5.6590 hc         1 ZAM       0.061367
     45 H233        -0.6360     2.7850     7.2780 hc         1 ZAM       0.061367
     46 H38         -0.2000     2.7840    -4.3460 ha         1 ZAM       0.202000
     47 H431         2.1260    -1.9380    -3.8290 h1         1 ZAM       0.052367
     48 H432         1.9450    -1.1170    -2.2550 h1         1 ZAM       0.052367
     49 H433         0.6200    -2.1400    -2.8810 h1         1 ZAM       0.052367
     50 H47         -1.2090     2.0540    -6.9950 ha         1 ZAM       0.112000
     51 H48         -1.4300     0.1010    -8.5670 ha         1 ZAM       0.109000
     52 H51          0.5410    -2.4650    -5.6750 ha         1 ZAM       0.113000
     53 H52         -0.5580    -2.1440    -7.9050 ha         1 ZAM       0.108000
     54 N10         -1.1260    -2.9280     4.1770 nv         1 ZAM      -1.080000
@<TRIPOS>BOND
     1     1     7 1   
     2     1    12 1   
     3     1    28 1   
     4     1    29 1   
     5     2    12 1   
     6     2    14 2   
     7     2    15 1   
     8     3     9 1   
     9     3    16 1   
    10     3    17 2   
    11     4    16 1   
    12     4    18 1   
    13     4    30 1   
    14     4    31 1   
    15     5    16 1   
    16     5    32 1   
    17     5    33 1   
    18     5    34 1   
    19     6     7 ar  
    20     6    11 ar  
    21     6    54 1   
    22     7     8 ar  
    23     8     9 ar  
    24     8    35 1   
    25     9    10 ar  
    26    10    11 ar  
    27    10    36 1   
    28    11    37 1   
    29    12    13 1   
    30    13    40 1   
    31    13    41 1   
    32    13    42 1   
    33    15    43 1   
    34    15    44 1   
    35    15    45 1   
    36    18    19 2   
    37    18    22 1   
    38    19    20 1   
    39    19    46 1   
    40    20    21 ar  
    41    20    24 ar  
    42    21    22 1   
    43    21    26 ar  
    44    22    23 1   
    45    23    47 1   
    46    23    48 1   
    47    23    49 1   
    48    24    25 ar  
    49    24    50 1   
    50    25    27 ar  
    51    25    51 1   
    52    26    27 ar  
    53    26    52 1   
    54    27    53 1   
    55    38    54 1   
    56    39    54 1   
@<TRIPOS>SUBSTRUCTURE
     1 ZAM         1 TEMP              0 ****  ****    0 ROOT
