@<TRIPOS>MOLECULE
ZAM
   54    56     1     0     0
SMALL
bcc


@<TRIPOS>ATOM
      1 C13         -0.2660    -0.7600     5.0120 c3         1 ZAM       0.151300
      2 C21          1.3510     0.9290     5.6380 c          1 ZAM       0.672100
      3 C27          0.2180     0.8360     0.2910 c          1 ZAM       0.691700
      4 C30          0.0020     1.9240    -1.8720 c3         1 ZAM       0.147200
      5 C33         -1.8740     0.5920    -1.0360 c3         1 ZAM       0.093300
      6 C01         -0.8000    -2.2690     3.0750 ca         1 ZAM       0.183600
      7 C02         -0.3740    -1.0020     3.5250 ca         1 ZAM      -0.171300
      8 C03         -0.0690    -0.0280     2.5950 ca         1 ZAM      -0.025000
      9 C04         -0.2140    -0.2380     1.2230 ca         1 ZAM      -0.198600
     10 C05         -0.6370    -1.4910     0.7890 ca         1 ZAM      -0.057000
     11 C06         -0.9160    -2.4930     1.6990 ca         1 ZAM      -0.215000
     12 N16          0.0660     0.6000     5.3660 n          1 ZAM      -0.484800
     13 C17         -1.0380     1.5350     5.4660 c3         1 ZAM       0.091300
     14 O22          2.2630     0.1190     5.5330 o          1 ZAM      -0.597100
     15 C23          1.6090     2.3500     6.0740 c3         1 ZAM      -0.176100
     16 N28         -0.5090     1.0390    -0.8370 n          1 ZAM      -0.484800
     17 O29          1.2260     1.4900     0.5400 o          1 ZAM      -0.605100
     18 C37          0.0190     1.2640    -3.2100 cc         1 ZAM      -0.083300
     19 C38         -0.7050     1.5950    -4.3210 cd         1 ZAM      -0.182200
     20 C39         -0.3560     0.6640    -5.3420 ca         1 ZAM      -0.099800
     21 C40          0.5900    -0.2180    -4.7740 ca         1 ZAM      -0.044200
     22 N41          0.8120     0.1750    -3.4820 na         1 ZAM      -0.046400
     23 C43          1.6890    -0.4980    -2.5550 c3         1 ZAM       0.030600
     24 C47         -0.7480     0.4800    -6.6730 ca         1 ZAM      -0.079000
     25 C48         -0.2010    -0.5630    -7.3940 ca         1 ZAM      -0.160000
     26 C51          1.1420    -1.2750    -5.4990 ca         1 ZAM      -0.145000
     27 C52          0.7360    -1.4310    -6.8110 ca         1 ZAM      -0.112000
     28 H131         0.4780    -1.4300     5.4490 h1         1 ZAM       0.060200
     29 H132        -1.2190    -1.0120     5.4880 h1         1 ZAM       0.060200
     30 H301        -0.6280     2.8150    -1.9410 h1         1 ZAM       0.072200
     31 H302         0.9960     2.2630    -1.5840 h1         1 ZAM       0.072200
     32 H331        -2.3320     0.3010    -0.0960 h1         1 ZAM       0.042033
     33 H332        -2.4590     1.4170    -1.4460 h1         1 ZAM       0.042033
     34 H333        -1.9430    -0.2450    -1.7330 h1         1 ZAM       0.042033
     35 H03          0.2790     0.9380     2.9410 ha         1 ZAM       0.149000
     36 H05         -0.7300    -1.7100    -0.2670 ha         1 ZAM       0.134000
     37 H06         -1.2260    -3.4680     1.3430 ha         1 ZAM       0.133000
     38 H101        -1.2290    -4.1810     3.5910 hn         1 ZAM       0.400800
     39 H102        -0.6770    -3.2540     4.8620 hn         1 ZAM       0.400800
     40 H171        -0.7440     2.5360     5.1600 h1         1 ZAM       0.040033
     41 H172        -1.8350     1.2170     4.7980 h1         1 ZAM       0.040033
     42 H173        -1.4410     1.5840     6.4800 h1         1 ZAM       0.040033
     43 H231         2.6460     2.4470     6.3820 hc         1 ZAM       0.061367
     44 H232         1.4310     3.0500     5.2550 hc         1 ZAM       0.061367
     45 H233         0.9680     2.6520     6.9020 hc         1 ZAM       0.061367
     46 H38         -1.4110     2.4090    -4.3870 ha         1 ZAM       0.152000
     47 H431         2.4860    -0.9940    -3.1040 h1         1 ZAM       0.052367
     48 H432         2.1560     0.2140    -1.8790 h1         1 ZAM       0.052367
     49 H433         1.1600    -1.2480    -1.9640 h1         1 ZAM       0.052367
     50 H47         -1.4720     1.1440    -7.1300 ha         1 ZAM       0.130000
     51 H48         -0.4960    -0.7180    -8.4240 ha         1 ZAM       0.127000
     52 H51          1.8620    -1.9540    -5.0590 ha         1 ZAM       0.131000
     53 H52          1.1490    -2.2400    -7.3990 ha         1 ZAM       0.126000
     54 N10         -1.1450    -3.2510     3.9700 nv         1 ZAM      -0.831200
@<TRIPOS>BOND
     1     1     7 1   
     2     1    12 1   
     3     1    28 1   
     4     1    29 1   
     5     2    12 1   
     6     2    14 2   
     7     2    15 1   
     8     3     9 1   
     9     3    16 1   
    10     3    17 2   
    11     4    16 1   
    12     4    18 1   
    13     4    30 1   
    14     4    31 1   
    15     5    16 1   
    16     5    32 1   
    17     5    33 1   
    18     5    34 1   
    19     6     7 ar  
    20     6    11 ar  
    21     6    54 1   
    22     7     8 ar  
    23     8     9 ar  
    24     8    35 1   
    25     9    10 ar  
    26    10    11 ar  
    27    10    36 1   
    28    11    37 1   
    29    12    13 1   
    30    13    40 1   
    31    13    41 1   
    32    13    42 1   
    33    15    43 1   
    34    15    44 1   
    35    15    45 1   
    36    18    19 2   
    37    18    22 1   
    38    19    20 1   
    39    19    46 1   
    40    20    21 ar  
    41    20    24 ar  
    42    21    22 1   
    43    21    26 ar  
    44    22    23 1   
    45    23    47 1   
    46    23    48 1   
    47    23    49 1   
    48    24    25 ar  
    49    24    50 1   
    50    25    27 ar  
    51    25    51 1   
    52    26    27 ar  
    53    26    52 1   
    54    27    53 1   
    55    38    54 1   
    56    39    54 1   
@<TRIPOS>SUBSTRUCTURE
     1 ZAM         1 TEMP              0 ****  ****    0 ROOT
