@<TRIPOS>MOLECULE
ZAP
   41    42     1     0     0
SMALL
abcg2


@<TRIPOS>ATOM
      1 C1           2.5290    -0.2990     4.9540 ce         1 ZAP       0.686800
      2 C2           1.4770    -0.2330     3.9050 ca         1 ZAP      -0.276900
      3 C3           1.6660     0.5550     2.7720 ca         1 ZAP      -0.093000
      4 C4           0.6940     0.6340     1.7880 ca         1 ZAP      -0.106500
      5 C5          -0.5010    -0.0760     1.8980 ca         1 ZAP       0.054700
      6 C6          -0.6920    -0.8500     3.0420 ca         1 ZAP      -0.106500
      7 C7           0.2810    -0.9410     4.0230 ca         1 ZAP      -0.093000
      8 C8          -1.5780     0.0370     0.8710 c3         1 ZAP      -0.137000
      9 C10          0.5960    -1.2980    -3.1930 c3         1 ZAP       0.228900
     10 C11          1.0550    -0.5740    -4.4230 ca         1 ZAP      -0.067300
     11 C12          2.4050    -0.3100    -4.6280 ca         1 ZAP      -0.087000
     12 C13          2.8290     0.3700    -5.7630 ca         1 ZAP      -0.124000
     13 C14          1.9010     0.7990    -6.7020 ca         1 ZAP      -0.123000
     14 C15          0.5490     0.5420    -6.5040 ca         1 ZAP      -0.124000
     15 C16          0.1300    -0.1410    -5.3720 ca         1 ZAP      -0.087000
     16 N1           3.3120     0.6640     5.2660 n2         1 ZAP      -0.917100
     17 N2           2.5980    -1.4830     5.6300 nv         1 ZAP      -1.035200
     18 N3          -1.0630     0.2130    -0.4660 ns         1 ZAP      -0.398900
     19 O3          -0.4330    -1.9420    -0.8190 o          1 ZAP      -0.608000
     20 O4           0.0070    -0.3260    -2.3280 os         1 ZAP      -0.468100
     21 P           -2.7000     1.5310     1.2350 p5         1 ZAP       1.257500
     22 H3           2.5920     1.1040     2.6430 ha         1 ZAP       0.082000
     23 H4           0.8780     1.2450     0.9140 ha         1 ZAP       0.119000
     24 H6          -1.6160    -1.4030     3.1590 ha         1 ZAP       0.119000
     25 H7           0.0950    -1.5550     4.8960 ha         1 ZAP       0.082000
     26 H8          -2.1990    -0.8620     0.9040 h1         1 ZAP       0.066700
     27 H101         1.4390    -1.7880    -2.7020 h1         1 ZAP       0.040200
     28 H102        -0.1360    -2.0680    -3.4480 h1         1 ZAP       0.040200
     29 H12          3.1330    -0.6420    -3.8960 ha         1 ZAP       0.119500
     30 H13          3.8830     0.5650    -5.9120 ha         1 ZAP       0.098500
     31 H14          2.2290     1.3280    -7.5870 ha         1 ZAP       0.093000
     32 H15         -0.1780     0.8710    -7.2350 ha         1 ZAP       0.098500
     33 H16         -0.9240    -0.3440    -5.2270 ha         1 ZAP       0.119500
     34 HN1          3.0660     1.5020     4.7530 hn         1 ZAP       0.392400
     35 HN21         3.3900    -1.5920     6.2440 hn         1 ZAP       0.447000
     36 HN22         2.3470    -2.3230     5.1360 hn         1 ZAP       0.447000
     37 HN3         -0.9900     1.1650    -0.7960 hn         1 ZAP       0.355500
     38 C9          -0.4920    -0.7770    -1.1630 c          1 ZAP       0.602100
     39 O1P         -2.9950     1.4390     2.7280 o          1 ZAP      -0.900167
     40 O2P         -1.8130     2.7090     0.8140 o          1 ZAP      -0.900167
     41 O3P         -3.9130     1.3110     0.3310 o          1 ZAP      -0.900167
@<TRIPOS>BOND
     1     1     2 1   
     2     1    16 2   
     3     1    17 1   
     4     2     3 ar  
     5     2     7 ar  
     6     3     4 ar  
     7     3    22 1   
     8     4     5 ar  
     9     4    23 1   
    10     5     6 ar  
    11     5     8 1   
    12     6     7 ar  
    13     6    24 1   
    14     7    25 1   
    15     8    18 1   
    16     8    21 1   
    17     8    26 1   
    18     9    10 1   
    19     9    20 1   
    20     9    27 1   
    21     9    28 1   
    22    10    11 ar  
    23    10    15 ar  
    24    11    12 ar  
    25    11    29 1   
    26    12    13 ar  
    27    12    30 1   
    28    13    14 ar  
    29    13    31 1   
    30    14    15 ar  
    31    14    32 1   
    32    15    33 1   
    33    16    34 1   
    34    17    35 1   
    35    17    36 1   
    36    18    37 1   
    37    18    38 1   
    38    19    38 2   
    39    20    38 1   
    40    21    39 1   
    41    21    40 1   
    42    21    41 1   
@<TRIPOS>SUBSTRUCTURE
     1 ZAP         1 TEMP              0 ****  ****    0 ROOT
