@<TRIPOS>MOLECULE
ZAP
   41    42     1     0     0
SMALL
No Charge or Current Charge


@<TRIPOS>ATOM
      1 C1           2.5210    -0.4360     5.1010 ce         1 ZAP       0.686800
      2 C2           1.5020    -0.2670     4.0220 ca         1 ZAP      -0.276900
      3 C3           1.5340     0.8590     3.1640 ca         1 ZAP      -0.093000
      4 C4           0.5570     1.0330     2.1690 ca         1 ZAP      -0.106500
      5 C5          -0.4860     0.1010     2.0150 ca         1 ZAP       0.054700
      6 C6          -0.5340    -1.0120     2.8730 ca         1 ZAP      -0.106500
      7 C7           0.4420    -1.1920     3.8690 ca         1 ZAP      -0.093000
      8 C8          -1.5380     0.2780     0.9250 c3         1 ZAP      -0.137000
      9 C10          0.4750    -1.3400    -3.2480 c3         1 ZAP       0.228900
     10 C11          0.9940    -0.6450    -4.5000 ca         1 ZAP      -0.067300
     11 C12          2.3380    -0.2260    -4.5750 ca         1 ZAP      -0.087000
     12 C13          2.8180     0.4130    -5.7320 ca         1 ZAP      -0.124000
     13 C14          1.9580     0.6390    -6.8190 ca         1 ZAP      -0.123000
     14 C15          0.6170     0.2260    -6.7500 ca         1 ZAP      -0.124000
     15 C16          0.1360    -0.4130    -5.5940 ca         1 ZAP      -0.087000
     16 N1           3.2650     0.5020     5.5110 n2         1 ZAP      -0.917100
     17 N2           2.7890    -1.6780     5.5250 nv         1 ZAP      -1.035200
     18 N3          -0.9190     0.3220    -0.4240 ns         1 ZAP      -0.398900
     19 O3          -0.5990    -1.9290    -0.7820 o          1 ZAP      -0.608000
     20 O4          -0.0110    -0.3410    -2.3370 os         1 ZAP      -0.468100
     21 P           -2.7110     1.7030     1.2290 p5         1 ZAP       1.257500
     22 H3           2.3250     1.6000     3.2490 ha         1 ZAP       0.082000
     23 H4           0.6100     1.8990     1.5140 ha         1 ZAP       0.119000
     24 H6          -1.3330    -1.7420     2.7700 ha         1 ZAP       0.119000
     25 H7           0.3590    -2.0550     4.5250 ha         1 ZAP       0.082000
     26 H8          -2.2100    -0.5870     0.9500 h1         1 ZAP       0.066700
     27 H101         1.2860    -1.9210    -2.7900 h1         1 ZAP       0.040200
     28 H102        -0.3270    -2.0380    -3.5230 h1         1 ZAP       0.040200
     29 H12          3.0090    -0.3950    -3.7360 ha         1 ZAP       0.119500
     30 H13          3.8560     0.7340    -5.7840 ha         1 ZAP       0.098500
     31 H14          2.3300     1.1340    -7.7140 ha         1 ZAP       0.093000
     32 H15         -0.0500     0.4010    -7.5910 ha         1 ZAP       0.098500
     33 H16         -0.9040    -0.7280    -5.5460 ha         1 ZAP       0.119500
     34 HN1          2.9300     1.3640     5.0610 hn         1 ZAP       0.392400
     35 HN21         3.7000    -1.7720     5.9530 hn         1 ZAP       0.447000
     36 HN22         2.5080    -2.4170     4.8940 hn         1 ZAP       0.447000
     37 HN3         -0.8040     1.2200    -0.8780 hn         1 ZAP       0.355500
     38 C9          -0.5160    -0.7660    -1.1470 c          1 ZAP       0.602100
     39 O1P         -3.0760     1.7620     2.6750 o          1 ZAP      -0.900167
     40 O2P         -2.0430     2.9720     0.8110 o          1 ZAP      -0.900167
     41 O3P         -3.9400     1.4930     0.4080 o          1 ZAP      -0.900167
@<TRIPOS>BOND
     1     1     2 1   
     2     1    16 2   
     3     1    17 1   
     4     2     3 ar  
     5     2     7 ar  
     6     3     4 ar  
     7     3    22 1   
     8     4     5 ar  
     9     4    23 1   
    10     5     6 ar  
    11     5     8 1   
    12     6     7 ar  
    13     6    24 1   
    14     7    25 1   
    15     8    18 1   
    16     8    21 1   
    17     8    26 1   
    18     9    10 1   
    19     9    20 1   
    20     9    27 1   
    21     9    28 1   
    22    10    11 ar  
    23    10    15 ar  
    24    11    12 ar  
    25    11    29 1   
    26    12    13 ar  
    27    12    30 1   
    28    13    14 ar  
    29    13    31 1   
    30    14    15 ar  
    31    14    32 1   
    32    15    33 1   
    33    16    34 1   
    34    17    35 1   
    35    17    36 1   
    36    18    37 1   
    37    18    38 1   
    38    19    38 2   
    39    20    38 1   
    40    21    39 1   
    41    21    40 1   
    42    21    41 1   
@<TRIPOS>SUBSTRUCTURE
     1 ZAP         1 TEMP              0 ****  ****    0 ROOT
