@<TRIPOS>MOLECULE
ZAR
   29    30     1     0     0
SMALL
No Charge or Current Charge


@<TRIPOS>ATOM
      1 O1          -0.4710     0.0150     6.2430 o          1 ZAR      -0.536000
      2 C2          -0.4610    -0.0410     5.0230 c          1 ZAR       0.530200
      3 N3           0.5600     0.4670     4.2480 ns         1 ZAR      -0.215900
      4 N4           0.6730     0.4600     2.8760 nc         1 ZAR      -0.417300
      5 C5          -0.3030    -0.0930     2.1460 cd         1 ZAR       0.392200
      6 C6          -1.4510    -0.6860     2.8110 cd         1 ZAR      -0.222600
      7 C7          -1.5170    -0.6530     4.2020 cc         1 ZAR      -0.268200
      8 C8          -0.1560    -0.0920     0.6680 ca         1 ZAR      -0.066900
      9 C9           1.1210    -0.0720     0.0620 ca         1 ZAR      -0.171000
     10 C10          1.2600    -0.0340    -1.3450 ca         1 ZAR       0.151100
     11 C11          0.1100     0.0030    -2.1680 ca         1 ZAR       0.057100
     12 C12         -1.1670     0.0090    -1.5620 ca         1 ZAR      -0.073000
     13 C13         -1.2940    -0.0310    -0.1640 ca         1 ZAR      -0.131000
     14 C14         -0.7820     0.0820    -4.5150 c3         1 ZAR       0.384300
     15 O15          0.2890     0.0400    -3.5470 os         1 ZAR      -0.375100
     16 F16         -1.5900    -0.9990    -4.4040 f          1 ZAR      -0.134500
     17 F17         -1.5550     1.1810    -4.3490 f          1 ZAR      -0.134500
     18 O18          2.5050    -0.0290    -1.9550 os         1 ZAR      -0.320100
     19 C19          3.7350    -0.0600    -1.2090 c3         1 ZAR       0.144900
     20 HN3          1.3180     0.8980     4.7710 hn         1 ZAR       0.354500
     21 H6          -2.2370    -1.1580     2.2320 ha         1 ZAR       0.201000
     22 H7          -2.3480    -1.0800     4.7550 ha         1 ZAR       0.216000
     23 H9           2.0010    -0.1010     0.6970 ha         1 ZAR       0.136000
     24 H12         -2.0760     0.0500    -2.1540 ha         1 ZAR       0.136000
     25 H13         -2.2910    -0.0000     0.2680 ha         1 ZAR       0.120000
     26 H14         -0.3710     0.1010    -5.5290 h3         1 ZAR       0.104700
     27 H191         4.5930    -0.0490    -1.8920 h1         1 ZAR       0.045367
     28 H192         3.8150     0.8130    -0.5500 h1         1 ZAR       0.045367
     29 H193         3.7990    -0.9710    -0.6000 h1         1 ZAR       0.045367
@<TRIPOS>BOND
     1     1     2 2   
     2     2     3 1   
     3     2     7 1   
     4     3     4 1   
     5     3    20 1   
     6     4     5 2   
     7     5     6 1   
     8     5     8 1   
     9     6     7 2   
    10     6    21 1   
    11     7    22 1   
    12     8     9 ar  
    13     8    13 ar  
    14     9    10 ar  
    15     9    23 1   
    16    10    11 ar  
    17    10    18 1   
    18    11    12 ar  
    19    11    15 1   
    20    12    13 ar  
    21    12    24 1   
    22    13    25 1   
    23    14    15 1   
    24    14    16 1   
    25    14    17 1   
    26    14    26 1   
    27    18    19 1   
    28    19    27 1   
    29    19    28 1   
    30    19    29 1   
@<TRIPOS>SUBSTRUCTURE
     1 ZAR         1 TEMP              0 ****  ****    0 ROOT
