@<TRIPOS>MOLECULE
ZAR
   29    30     1     0     0
SMALL
bcc


@<TRIPOS>ATOM
      1 O1          -0.2540    -0.4260     6.1190 o          1 ZAR      -0.611500
      2 C2          -0.3590    -0.3260     4.9040 c          1 ZAR       0.672700
      3 N3           0.7190     0.0150     4.1210 ns         1 ZAR      -0.282900
      4 N4           0.7560     0.1720     2.8110 nc         1 ZAR      -0.417300
      5 C5          -0.3330    -0.0160     2.1330 cd         1 ZAR       0.392200
      6 C6          -1.5460    -0.3950     2.7930 cd         1 ZAR      -0.172600
      7 C7          -1.5620    -0.5450     4.1320 cc         1 ZAR      -0.218200
      8 C8          -0.2600     0.1570     0.6700 ca         1 ZAR      -0.066900
      9 C9           0.9690     0.0370     0.0180 ca         1 ZAR      -0.189000
     10 C10          1.0630     0.2020    -1.3570 ca         1 ZAR       0.151100
     11 C11         -0.1010     0.4980    -2.0820 ca         1 ZAR       0.057100
     12 C12         -1.3130     0.6310    -1.4400 ca         1 ZAR      -0.091000
     13 C13         -1.3990     0.4620    -0.0640 ca         1 ZAR      -0.149000
     14 C14         -0.2710    -0.3220    -4.2700 c3         1 ZAR       0.603700
     15 O15          0.0080     0.7140    -3.4400 os         1 ZAR      -0.351900
     16 F16          0.4380    -1.4250    -3.9430 f          1 ZAR      -0.255800
     17 F17         -1.5730    -0.6890    -4.1730 f          1 ZAR      -0.255800
     18 O18          2.1970     0.1080    -2.0610 os         1 ZAR      -0.296900
     19 C19          3.4000    -0.1720    -1.3690 c3         1 ZAR       0.121700
     20 HN3          1.6030     0.1840     4.5840 hn         1 ZAR       0.354500
     21 H6          -2.4420    -0.5800     2.2160 ha         1 ZAR       0.151000
     22 H7          -2.4590    -0.8410     4.6570 ha         1 ZAR       0.166000
     23 H9           1.8470    -0.2020     0.6010 ha         1 ZAR       0.154000
     24 H12         -2.1960     0.8960    -2.0060 ha         1 ZAR       0.154000
     25 H13         -2.3590     0.5920     0.4160 ha         1 ZAR       0.138000
     26 H14         -0.0500    -0.0210    -5.2910 h3         1 ZAR       0.104700
     27 H191         4.1860    -0.1940    -2.1190 h1         1 ZAR       0.045367
     28 H192         3.6360     0.6000    -0.6330 h1         1 ZAR       0.045367
     29 H193         3.3630    -1.1420    -0.8680 h1         1 ZAR       0.045367
@<TRIPOS>BOND
     1     1     2 2   
     2     2     3 1   
     3     2     7 1   
     4     3     4 1   
     5     3    20 1   
     6     4     5 2   
     7     5     6 1   
     8     5     8 1   
     9     6     7 2   
    10     6    21 1   
    11     7    22 1   
    12     8     9 ar  
    13     8    13 ar  
    14     9    10 ar  
    15     9    23 1   
    16    10    11 ar  
    17    10    18 1   
    18    11    12 ar  
    19    11    15 1   
    20    12    13 ar  
    21    12    24 1   
    22    13    25 1   
    23    14    15 1   
    24    14    16 1   
    25    14    17 1   
    26    14    26 1   
    27    18    19 1   
    28    19    27 1   
    29    19    28 1   
    30    19    29 1   
@<TRIPOS>SUBSTRUCTURE
     1 ZAR         1 TEMP              0 ****  ****    0 ROOT
