@<TRIPOS>MOLECULE
ZAS
   34    36     1     0     0
SMALL
No Charge or Current Charge


@<TRIPOS>ATOM
      1 N53         19.2610     8.0700    10.3830 n2         1 ZAS      -0.201400
      2 N52         18.2240     7.8850    11.0370 n1         1 ZAS       0.222000
      3 N51         18.4100     6.9840    11.8710 n2         1 ZAS      -0.033200
      4 C5          17.7730     7.1490    13.1830 c3         1 ZAS       0.104800
      5 C4          18.8000     6.8480    14.3140 c5         1 ZAS       0.165300
      6 O4          19.9620     7.7030    14.2020 os         1 ZAS      -0.441000
      7 C3          18.2990     7.1470    15.7600 c5         1 ZAS       0.118300
      8 O3          19.1100     6.5380    16.7690 oh         1 ZAS      -0.692000
      9 C2          18.4710     8.6980    15.8320 c5         1 ZAS       0.089300
     10 O2          18.7220     9.1000    17.1960 oh         1 ZAS      -0.672000
     11 C1          19.6860     8.9690    14.8480 c5         1 ZAS       0.316300
     12 N9          19.5500    10.0050    13.8130 na         1 ZAS      -0.298300
     13 C8          18.4210    10.7920    13.5380 cc         1 ZAS       0.381700
     14 N7          18.6390    11.6260    12.5080 nd         1 ZAS      -0.521100
     15 C7          19.9620    11.3580    12.1510 ca         1 ZAS      -0.109600
     16 C9          20.5270    10.3850    12.9340 ca         1 ZAS       0.155500
     17 N3          21.8010     9.9780    12.7660 nb         1 ZAS      -0.228000
     18 C10         22.4850    10.5850    11.7670 ca         1 ZAS       0.203900
     19 N1          22.0190    11.5480    10.9350 nb         1 ZAS      -0.288000
     20 C6          20.7500    11.9360    11.1360 ca         1 ZAS       0.461900
     21 N6          20.2750    12.9040    10.3090 nv         1 ZAS      -1.051900
     22 H53         19.0160     8.3210     9.4170 hn         1 ZAS       0.524400
     23 H5          17.3590     8.1570    13.3080 h1         1 ZAS       0.112700
     24 H5'         16.9350     6.4460    13.2830 h1         1 ZAS       0.112700
     25 H4          19.1170     5.8000    14.2150 h1         1 ZAS       0.115700
     26 H3          17.2470     6.8530    15.8910 h1         1 ZAS       0.057700
     27 HO3         19.2440     7.2860    17.4100 ho         1 ZAS       0.548000
     28 H2          17.5490     9.1690    15.4710 h1         1 ZAS       0.046700
     29 HO8         18.4730    10.0530    17.2850 ho         1 ZAS       0.528000
     30 H1          20.5680     9.2630    15.4330 h2         1 ZAS       0.144700
     31 H8          17.4940    10.7140    14.0910 h5         1 ZAS       0.042800
     32 H7          23.5150    10.2670    11.6170 h5         1 ZAS       0.059100
     33 H61         20.7660    13.0680     9.4340 hn         1 ZAS       0.513500
     34 H62         19.2700    13.0580    10.3050 hn         1 ZAS       0.513500
@<TRIPOS>BOND
     1     1     2 2   
     2     1    22 1   
     3     2     3 2   
     4     3     4 1   
     5     4     5 1   
     6     4    23 1   
     7     4    24 1   
     8     5     6 1   
     9     5     7 1   
    10     5    25 1   
    11     6    11 1   
    12     7     8 1   
    13     7     9 1   
    14     7    26 1   
    15     8    27 1   
    16     9    10 1   
    17     9    11 1   
    18     9    28 1   
    19    10    29 1   
    20    11    12 1   
    21    11    30 1   
    22    12    13 1   
    23    12    16 1   
    24    13    14 2   
    25    13    31 1   
    26    14    15 1   
    27    15    16 ar  
    28    15    20 ar  
    29    16    17 ar  
    30    17    18 ar  
    31    18    19 ar  
    32    18    32 1   
    33    19    20 ar  
    34    20    21 1   
    35    21    33 1   
    36    21    34 1   
@<TRIPOS>SUBSTRUCTURE
     1 ZAS         1 TEMP              0 ****  ****    0 ROOT
