@<TRIPOS>MOLECULE
ZAS
   34    36     1     0     0
SMALL
bcc


@<TRIPOS>ATOM
      1 N53         16.3960     4.8380    10.6870 n2         1 ZAS      -0.201400
      2 N52         16.7960     5.7220    11.3370 n1         1 ZAS       0.222000
      3 N51         17.3530     6.5460    11.9200 n2         1 ZAS      -0.033200
      4 C5          17.2090     6.8250    13.3620 c3         1 ZAS       0.104800
      5 C4          18.6000     6.8870    13.9750 c5         1 ZAS       0.142100
      6 O4          19.4100     7.7970    13.2480 os         1 ZAS      -0.394600
      7 C3          18.5340     7.3990    15.4130 c5         1 ZAS       0.095100
      8 O3          19.5900     6.8190    16.1250 oh         1 ZAS      -0.569800
      9 C2          18.7650     8.9000    15.2010 c5         1 ZAS       0.066100
     10 O2          19.2970     9.5700    16.3000 oh         1 ZAS      -0.549800
     11 C1          19.7870     8.8800    14.0660 c5         1 ZAS       0.263800
     12 N9          19.8280    10.0750    13.2760 na         1 ZAS      -0.269000
     13 C8          18.8120    10.6300    12.5410 cc         1 ZAS       0.381700
     14 N7          19.1670    11.7010    11.9000 nd         1 ZAS      -0.521100
     15 C7          20.4900    11.8720    12.2210 ca         1 ZAS      -0.240200
     16 C9          20.9230    10.8680    13.0710 ca         1 ZAS       0.483800
     17 N3          22.1470    10.7260    13.5710 nb         1 ZAS      -0.754000
     18 C10         22.9570    11.6860    13.1580 ca         1 ZAS       0.729900
     19 N1          22.6840    12.7070    12.3500 nb         1 ZAS      -0.814000
     20 C6          21.4480    12.8350    11.8540 ca         1 ZAS       0.790200
     21 N6          21.1720    13.8590    11.0480 nv         1 ZAS      -0.941500
     22 H53         15.5080     5.0060    10.1990 hn         1 ZAS       0.524400
     23 H5          16.6860     7.7810    13.4050 h1         1 ZAS       0.112700
     24 H5'         16.6000     6.0530    13.8290 h1         1 ZAS       0.112700
     25 H4          19.0450     5.8900    13.9390 h1         1 ZAS       0.115700
     26 H3          17.5610     7.1940    15.8790 h1         1 ZAS       0.057700
     27 HO3         19.7620     7.3640    16.9020 ho         1 ZAS       0.449000
     28 H2          17.8320     9.3640    14.8560 h1         1 ZAS       0.046700
     29 HO8         18.5780     9.8400    16.8810 ho         1 ZAS       0.429000
     30 H1          20.7950     8.7420    14.4680 h2         1 ZAS       0.144700
     31 H8          17.8250    10.1940    12.5110 h5         1 ZAS       0.042800
     32 H7          23.9770    11.6400    13.5230 h5         1 ZAS       0.059100
     33 H61         21.8970    14.5000    10.7770 hn         1 ZAS       0.458300
     34 H62         20.2680    13.9540    10.6190 hn         1 ZAS       0.458300
@<TRIPOS>BOND
     1     1     2 2   
     2     1    22 1   
     3     2     3 2   
     4     3     4 1   
     5     4     5 1   
     6     4    23 1   
     7     4    24 1   
     8     5     6 1   
     9     5     7 1   
    10     5    25 1   
    11     6    11 1   
    12     7     8 1   
    13     7     9 1   
    14     7    26 1   
    15     8    27 1   
    16     9    10 1   
    17     9    11 1   
    18     9    28 1   
    19    10    29 1   
    20    11    12 1   
    21    11    30 1   
    22    12    13 1   
    23    12    16 1   
    24    13    14 2   
    25    13    31 1   
    26    14    15 1   
    27    15    16 ar  
    28    15    20 ar  
    29    16    17 ar  
    30    17    18 ar  
    31    18    19 ar  
    32    18    32 1   
    33    19    20 ar  
    34    20    21 1   
    35    21    33 1   
    36    21    34 1   
@<TRIPOS>SUBSTRUCTURE
     1 ZAS         1 TEMP              0 ****  ****    0 ROOT
