@<TRIPOS>MOLECULE
ZAT
   54    55     1     0     0
SMALL
No Charge or Current Charge


@<TRIPOS>ATOM
      1 NAA         41.3830   -28.2130    -0.9020 n2         1 ZAT      -0.914600
      2 CAK         40.9120   -28.3510     0.2420 c2         1 ZAT       0.841100
      3 NAB         40.4840   -27.3780     1.0170 nv         1 ZAT      -1.072200
      4 NAC         40.8320   -29.5650     0.8500 nu         1 ZAT      -0.615000
      5 NAD         40.3910   -29.8250     2.1470 n2         1 ZAT      -0.414900
      6 CAL         40.3550   -31.0320     2.6480 ce         1 ZAT       0.385400
      7 CAM         41.0470   -32.2210     1.9890 c3         1 ZAT      -0.167400
      8 CAN         39.7280   -31.2340     3.9970 ca         1 ZAT      -0.137900
      9 CAS         39.7200   -30.1960     4.9540 ca         1 ZAT      -0.060500
     10 CAR         39.0940   -30.3740     6.1990 ca         1 ZAT      -0.155250
     11 CAO         39.0510   -32.4340     4.3050 ca         1 ZAT      -0.060500
     12 CAP         38.4250   -32.6100     5.5520 ca         1 ZAT      -0.155250
     13 CAQ         38.4480   -31.5820     6.5170 ca         1 ZAT       0.002000
     14 NAE         37.8360   -31.6850     7.7970 ns         1 ZAT      -0.161500
     15 CAT         37.2020   -32.7330     8.4490 c          1 ZAT       0.670100
     16 OBD         37.0680   -33.8580     7.9820 o          1 ZAT      -0.601100
     17 NAF         36.7400   -32.3430     9.6990 ns         1 ZAT      -0.161500
     18 CAU         36.0560   -33.0450    10.7300 ca         1 ZAT       0.002000
     19 CAZ         35.7890   -34.4300    10.6930 ca         1 ZAT      -0.155250
     20 CAY         35.1100   -35.0560    11.7530 ca         1 ZAT      -0.060500
     21 CAV         35.6450   -32.3100    11.8550 ca         1 ZAT      -0.155250
     22 CAW         34.9660   -32.9340    12.9170 ca         1 ZAT      -0.060500
     23 CAX         34.6670   -34.3130    12.8690 ca         1 ZAT      -0.137900
     24 CBA         33.9830   -34.9920    14.0210 ce         1 ZAT       0.385400
     25 CBB         33.0120   -36.1260    13.7140 c3         1 ZAT      -0.167400
     26 NAG         34.1530   -34.5090    15.2230 n2         1 ZAT      -0.414900
     27 NAH         33.6620   -35.1460    16.3630 nu         1 ZAT      -0.615000
     28 CBC         33.7890   -34.7300    17.6510 c2         1 ZAT       0.841100
     29 NAJ         33.3660   -35.4030    18.6090 n2         1 ZAT      -0.914600
     30 NAI         34.4690   -33.6070    17.7450 nv         1 ZAT      -1.072200
     31 HAA         41.3110   -27.2120    -1.1220 hn         1 ZAT       0.389900
     32 HAB1        40.2180   -27.8330     1.8820 hn         1 ZAT       0.474000
     33 HAB2        41.1900   -26.6690     1.1530 hn         1 ZAT       0.474000
     34 HAC         41.1590   -30.2940     0.2140 hn         1 ZAT       0.509500
     35 HAM1        40.4980   -32.5530     1.1000 hc         1 ZAT       0.053033
     36 HAM2        42.0680   -31.9660     1.6820 hc         1 ZAT       0.053033
     37 HAM3        41.1320   -33.0770     2.6670 hc         1 ZAT       0.053033
     38 HAS         40.2100   -29.2480     4.7410 ha         1 ZAT       0.120500
     39 HAO         38.9950   -33.2380     3.5740 ha         1 ZAT       0.120500
     40 HAR         39.1140   -29.5620     6.9230 ha         1 ZAT       0.128750
     41 HAP         37.9190   -33.5510     5.7400 ha         1 ZAT       0.128750
     42 HAE         37.8710   -30.8260     8.3310 hn         1 ZAT       0.147000
     43 HAF         36.9230   -31.3750     9.9240 hn         1 ZAT       0.147000
     44 HAZ         36.1080   -35.0450     9.8580 ha         1 ZAT       0.128750
     45 HAV         35.8510   -31.2430    11.9130 ha         1 ZAT       0.128750
     46 HAY         34.9400   -36.1290    11.7040 ha         1 ZAT       0.120500
     47 HAW         34.6620   -32.3340    13.7720 ha         1 ZAT       0.120500
     48 HBB1        32.8120   -36.2210    12.6420 hc         1 ZAT       0.053033
     49 HBB2        33.4050   -37.0870    14.0650 hc         1 ZAT       0.053033
     50 HBB3        32.0420   -35.9590    14.1970 hc         1 ZAT       0.053033
     51 HAH         33.1490   -36.0280    16.3320 hn         1 ZAT       0.509500
     52 HAJ         33.5890   -34.8670    19.4560 hn         1 ZAT       0.389900
     53 HAI1        34.7160   -33.3730    16.7910 hn         1 ZAT       0.474000
     54 HAI2        35.2780   -33.7080    18.3410 hn         1 ZAT       0.474000
@<TRIPOS>BOND
     1     1     2 2   
     2     1    31 1   
     3     2     3 1   
     4     2     4 1   
     5     3    32 1   
     6     3    33 1   
     7     4     5 1   
     8     4    34 1   
     9     5     6 2   
    10     6     7 1   
    11     6     8 1   
    12     7    35 1   
    13     7    36 1   
    14     7    37 1   
    15     8     9 ar  
    16     8    11 ar  
    17     9    10 ar  
    18     9    38 1   
    19    10    13 ar  
    20    10    40 1   
    21    11    12 ar  
    22    11    39 1   
    23    12    13 ar  
    24    12    41 1   
    25    13    14 1   
    26    14    15 1   
    27    14    42 1   
    28    15    16 2   
    29    15    17 1   
    30    17    18 1   
    31    17    43 1   
    32    18    19 ar  
    33    18    21 ar  
    34    19    20 ar  
    35    19    44 1   
    36    20    23 ar  
    37    20    46 1   
    38    21    22 ar  
    39    21    45 1   
    40    22    23 ar  
    41    22    47 1   
    42    23    24 1   
    43    24    25 1   
    44    24    26 2   
    45    25    48 1   
    46    25    49 1   
    47    25    50 1   
    48    26    27 1   
    49    27    28 1   
    50    27    51 1   
    51    28    29 2   
    52    28    30 1   
    53    29    52 1   
    54    30    53 1   
    55    30    54 1   
@<TRIPOS>SUBSTRUCTURE
     1 ZAT         1 TEMP              0 ****  ****    0 ROOT
