@<TRIPOS>MOLECULE
ZAT
   54    55     1     0     0
SMALL
abcg2


@<TRIPOS>ATOM
      1 NAA         41.9790   -28.4460    -0.4440 n2         1 ZAT      -0.914600
      2 CAK         41.3610   -28.5240     0.6750 c2         1 ZAT       0.841100
      3 NAB         40.9860   -27.5020     1.4940 nv         1 ZAT      -1.072200
      4 NAC         40.9710   -29.7790     1.0920 nu         1 ZAT      -0.615000
      5 NAD         40.3960   -29.9580     2.2830 n2         1 ZAT      -0.414900
      6 CAL         40.0510   -31.1330     2.6560 ce         1 ZAT       0.385400
      7 CAM         40.2580   -32.3510     1.8030 c3         1 ZAT      -0.167400
      8 CAN         39.4290   -31.2420     3.9880 ca         1 ZAT      -0.137900
      9 CAS         39.6080   -30.2460     4.9530 ca         1 ZAT      -0.060500
     10 CAR         39.0140   -30.3380     6.1940 ca         1 ZAT      -0.155250
     11 CAO         38.6170   -32.3220     4.3310 ca         1 ZAT      -0.060500
     12 CAP         38.0020   -32.4200     5.5710 ca         1 ZAT      -0.155250
     13 CAQ         38.2000   -31.4260     6.5270 ca         1 ZAT       0.002000
     14 NAE         37.6110   -31.4150     7.7900 ns         1 ZAT      -0.161500
     15 CAT         37.1290   -32.4890     8.4900 c          1 ZAT       0.670100
     16 OBD         37.1490   -33.6320     8.0710 o          1 ZAT      -0.601100
     17 NAF         36.6220   -32.1300     9.7100 ns         1 ZAT      -0.161500
     18 CAU         36.0730   -32.9480    10.6940 ca         1 ZAT       0.002000
     19 CAZ         35.9620   -34.3350    10.6200 ca         1 ZAT      -0.155250
     20 CAY         35.3880   -35.0420    11.6690 ca         1 ZAT      -0.060500
     21 CAV         35.6000   -32.3070    11.8470 ca         1 ZAT      -0.155250
     22 CAW         35.0380   -33.0240    12.8810 ca         1 ZAT      -0.060500
     23 CAX         34.9150   -34.4160    12.8190 ca         1 ZAT      -0.137900
     24 CBA         34.3270   -35.1760    13.9380 ce         1 ZAT       0.385400
     25 CBB         33.7960   -36.5650    13.7330 c3         1 ZAT      -0.167400
     26 NAG         34.2880   -34.5790    15.0700 n2         1 ZAT      -0.414900
     27 NAH         33.7580   -35.1880    16.1320 nu         1 ZAT      -0.615000
     28 CBC         33.7340   -34.5660    17.3620 c2         1 ZAT       0.841100
     29 NAJ         33.2930   -35.2450    18.3550 n2         1 ZAT      -0.914600
     30 NAI         34.1380   -33.2640    17.3550 nv         1 ZAT      -1.072200
     31 HAA         42.1910   -27.4830    -0.6730 hn         1 ZAT       0.389900
     32 HAB1        40.7230   -27.7370     2.4380 hn         1 ZAT       0.474000
     33 HAB2        41.5000   -26.6420     1.4010 hn         1 ZAT       0.474000
     34 HAC         41.1810   -30.5470     0.4680 hn         1 ZAT       0.509500
     35 HAM1        39.6370   -32.3180     0.9040 hc         1 ZAT       0.053033
     36 HAM2        41.2990   -32.4260     1.4740 hc         1 ZAT       0.053033
     37 HAM3        40.0310   -33.2730     2.3280 hc         1 ZAT       0.053033
     38 HAS         40.2400   -29.3950     4.7360 ha         1 ZAT       0.120500
     39 HAO         38.4240   -33.1090     3.6140 ha         1 ZAT       0.120500
     40 HAR         39.1910   -29.5580     6.9260 ha         1 ZAT       0.128750
     41 HAP         37.3660   -33.2670     5.7710 ha         1 ZAT       0.128750
     42 HAE         37.6630   -30.5300     8.2720 hn         1 ZAT       0.147000
     43 HAF         36.6220   -31.1470     9.9390 hn         1 ZAT       0.147000
     44 HAZ         36.3160   -34.8770     9.7600 ha         1 ZAT       0.128750
     45 HAV         35.6680   -31.2290    11.9280 ha         1 ZAT       0.128750
     46 HAY         35.3340   -36.1180    11.5680 ha         1 ZAT       0.120500
     47 HAW         34.6760   -32.4900    13.7500 ha         1 ZAT       0.120500
     48 HBB1        33.7950   -36.8620    12.6890 hc         1 ZAT       0.053033
     49 HBB2        34.3790   -37.3050    14.2870 hc         1 ZAT       0.053033
     50 HBB3        32.7640   -36.6400    14.0830 hc         1 ZAT       0.053033
     51 HAH         33.4460   -36.1500    16.1100 hn         1 ZAT       0.509500
     52 HAJ         33.3050   -34.6910    19.2020 hn         1 ZAT       0.389900
     53 HAI1        34.7090   -32.9620    16.5820 hn         1 ZAT       0.474000
     54 HAI2        34.3900   -32.8700    18.2450 hn         1 ZAT       0.474000
@<TRIPOS>BOND
     1     1     2 2   
     2     1    31 1   
     3     2     3 1   
     4     2     4 1   
     5     3    32 1   
     6     3    33 1   
     7     4     5 1   
     8     4    34 1   
     9     5     6 2   
    10     6     7 1   
    11     6     8 1   
    12     7    35 1   
    13     7    36 1   
    14     7    37 1   
    15     8     9 ar  
    16     8    11 ar  
    17     9    10 ar  
    18     9    38 1   
    19    10    13 ar  
    20    10    40 1   
    21    11    12 ar  
    22    11    39 1   
    23    12    13 ar  
    24    12    41 1   
    25    13    14 1   
    26    14    15 1   
    27    14    42 1   
    28    15    16 2   
    29    15    17 1   
    30    17    18 1   
    31    17    43 1   
    32    18    19 ar  
    33    18    21 ar  
    34    19    20 ar  
    35    19    44 1   
    36    20    23 ar  
    37    20    46 1   
    38    21    22 ar  
    39    21    45 1   
    40    22    23 ar  
    41    22    47 1   
    42    23    24 1   
    43    24    25 1   
    44    24    26 2   
    45    25    48 1   
    46    25    49 1   
    47    25    50 1   
    48    26    27 1   
    49    27    28 1   
    50    27    51 1   
    51    28    29 2   
    52    28    30 1   
    53    29    52 1   
    54    30    53 1   
    55    30    54 1   
@<TRIPOS>SUBSTRUCTURE
     1 ZAT         1 TEMP              0 ****  ****    0 ROOT
