@<TRIPOS>MOLECULE
ZAW
   22    23     1     0     0
SMALL
No Charge or Current Charge


@<TRIPOS>ATOM
      1 C01          1.3930    -0.9340     0.6930 ca         1 ZAW      -0.038000
      2 C06          2.6530    -1.5510     0.7150 ca         1 ZAW      -0.176000
      3 C05          3.7450    -0.9030     0.1170 ca         1 ZAW       0.359400
      4 N01          3.6420     0.3060    -0.4810 nb         1 ZAW      -0.670000
      5 C03          2.4260     0.9030    -0.5000 ca         1 ZAW       0.386900
      6 C04          1.2750     0.3200     0.0570 ca         1 ZAW      -0.226600
      7 C02         -0.0200     1.0730    -0.0050 c          1 ZAW       0.604300
      8 O01         -0.0230     2.2970    -0.0110 o          1 ZAW      -0.507100
      9 C07         -1.3110     0.3130    -0.0600 ca         1 ZAW      -0.226600
     10 C08         -1.4230    -0.9470    -0.6860 ca         1 ZAW      -0.038000
     11 C09         -2.6800    -1.5700    -0.7010 ca         1 ZAW      -0.176000
     12 C10         -3.7750    -0.9220    -0.1090 ca         1 ZAW       0.359400
     13 N02         -3.6780     0.2930     0.4780 nb         1 ZAW      -0.670000
     14 C12         -2.4650     0.8950     0.4920 ca         1 ZAW       0.386900
     15 H1           0.5410    -1.4140     1.1720 ha         1 ZAW       0.126000
     16 H2           2.7900    -2.5170     1.1920 ha         1 ZAW       0.129000
     17 H3           4.7330    -1.3610     0.1210 h4         1 ZAW       0.023100
     18 H4           2.3820     1.8750    -0.9910 h4         1 ZAW       0.037100
     19 H5          -0.5690    -1.4270    -1.1600 ha         1 ZAW       0.126000
     20 H6          -2.8130    -2.5410    -1.1700 ha         1 ZAW       0.129000
     21 H7          -4.7610    -1.3850    -0.1090 h4         1 ZAW       0.023100
     22 H8          -2.4250     1.8720     0.9730 h4         1 ZAW       0.037100
@<TRIPOS>BOND
     1     1     2 ar  
     2     1     6 ar  
     3     1    15 1   
     4     2     3 ar  
     5     2    16 1   
     6     3     4 ar  
     7     3    17 1   
     8     4     5 ar  
     9     5     6 ar  
    10     5    18 1   
    11     6     7 1   
    12     7     8 2   
    13     7     9 1   
    14     9    10 ar  
    15     9    14 ar  
    16    10    11 ar  
    17    10    19 1   
    18    11    12 ar  
    19    11    20 1   
    20    12    13 ar  
    21    12    21 1   
    22    13    14 ar  
    23    14    22 1   
@<TRIPOS>SUBSTRUCTURE
     1 ZAW         1 TEMP              0 ****  ****    0 ROOT
