@<TRIPOS>MOLECULE
ZAW
   22    23     1     0     0
SMALL
bcc


@<TRIPOS>ATOM
      1 C01          1.3900    -0.9210     0.6990 ca         1 ZAW      -0.056000
      2 C06          2.6360    -1.5220     0.7410 ca         1 ZAW      -0.259300
      3 C05          3.7000    -0.8850     0.1200 ca         1 ZAW       0.424700
      4 N01          3.5870     0.2820    -0.5080 nb         1 ZAW      -0.670000
      5 C03          2.3980     0.8610    -0.5310 ca         1 ZAW       0.452200
      6 C04          1.2580     0.3020     0.0470 ca         1 ZAW      -0.291900
      7 C02         -0.0200     1.0550     0.0010 c          1 ZAW       0.604300
      8 O01         -0.0220     2.2690     0.0000 o          1 ZAW      -0.507100
      9 C07         -1.2950     0.2970    -0.0460 ca         1 ZAW      -0.291900
     10 C08         -1.4170    -0.9340    -0.6840 ca         1 ZAW      -0.056000
     11 C09         -2.6610    -1.5420    -0.7270 ca         1 ZAW      -0.259300
     12 C10         -3.7310    -0.9020    -0.1220 ca         1 ZAW       0.424700
     13 N02         -3.6280     0.2730     0.4940 nb         1 ZAW      -0.670000
     14 C12         -2.4410     0.8570     0.5190 ca         1 ZAW       0.452200
     15 H1           0.5440    -1.3880     1.1860 ha         1 ZAW       0.144000
     16 H2           2.7850    -2.4650     1.2470 ha         1 ZAW       0.147000
     17 H3           4.6860    -1.3330     0.1340 h4         1 ZAW       0.023100
     18 H4           2.3320     1.8100    -1.0520 h4         1 ZAW       0.037100
     19 H5          -0.5660    -1.4040    -1.1600 ha         1 ZAW       0.144000
     20 H6          -2.8020    -2.4910    -1.2240 ha         1 ZAW       0.147000
     21 H7          -4.7150    -1.3550    -0.1370 h4         1 ZAW       0.023100
     22 H8          -2.3820     1.8120     1.0290 h4         1 ZAW       0.037100
@<TRIPOS>BOND
     1     1     2 ar  
     2     1     6 ar  
     3     1    15 1   
     4     2     3 ar  
     5     2    16 1   
     6     3     4 ar  
     7     3    17 1   
     8     4     5 ar  
     9     5     6 ar  
    10     5    18 1   
    11     6     7 1   
    12     7     8 2   
    13     7     9 1   
    14     9    10 ar  
    15     9    14 ar  
    16    10    11 ar  
    17    10    19 1   
    18    11    12 ar  
    19    11    20 1   
    20    12    13 ar  
    21    12    21 1   
    22    13    14 ar  
    23    14    22 1   
@<TRIPOS>SUBSTRUCTURE
     1 ZAW         1 TEMP              0 ****  ****    0 ROOT
