@<TRIPOS>MOLECULE
ZAZ
   34    34     1     0     0
SMALL
bcc


@<TRIPOS>ATOM
      1 C1          -2.7030    -1.2800     0.0390 c6         1 ZAZ      -0.070400
      2 C2          -4.0540    -0.7950    -0.4740 c6         1 ZAZ      -0.072900
      3 C3          -4.4560     0.5240     0.1770 c6         1 ZAZ      -0.074400
      4 C4          -3.3700     1.5800    -0.0040 c6         1 ZAZ      -0.072900
      5 C5          -2.0190     1.0850     0.5020 c6         1 ZAZ      -0.070400
      6 C6          -1.6060    -0.2330    -0.1570 c6         1 ZAZ      -0.060700
      7 C7          -0.2530    -0.7410     0.3420 c3         1 ZAZ      -0.071400
      8 C8           0.9380     0.0650    -0.1640 c3         1 ZAZ      -0.074400
      9 C9           2.2770    -0.4700     0.3280 c3         1 ZAZ      -0.075400
     10 C10          3.4660     0.2650    -0.2760 c3         1 ZAZ      -0.081400
     11 C11          4.7890    -0.2820     0.2220 c3         1 ZAZ       0.140400
     12 O1           5.8470     0.4300    -0.3860 oh         1 ZAZ      -0.600800
     13 H1O          6.6770     0.0660    -0.0660 ho         1 ZAZ       0.403000
     14 H11         -2.7810    -1.5200     1.1070 hc         1 ZAZ       0.037700
     15 H12         -2.4190    -2.2080    -0.4650 hc         1 ZAZ       0.037700
     16 H21         -3.9980    -0.6580    -1.5590 hc         1 ZAZ       0.037700
     17 H22         -4.8210    -1.5550    -0.2980 hc         1 ZAZ       0.037700
     18 H31         -5.4040     0.8790    -0.2350 hc         1 ZAZ       0.037200
     19 H32         -4.6260     0.3610     1.2480 hc         1 ZAZ       0.037200
     20 H41         -3.2880     1.8350    -1.0670 hc         1 ZAZ       0.037700
     21 H42         -3.6490     2.5020     0.5120 hc         1 ZAZ       0.037700
     22 H51         -1.2570     1.8510     0.3390 hc         1 ZAZ       0.037700
     23 H52         -2.0750     0.9320     1.5870 hc         1 ZAZ       0.037700
     24 H61         -1.5140    -0.0540    -1.2380 hc         1 ZAZ       0.044700
     25 H71         -0.2520    -0.7580     1.4380 hc         1 ZAZ       0.037200
     26 H72         -0.1250    -1.7820     0.0250 hc         1 ZAZ       0.037200
     27 H81          0.9280     0.0570    -1.2590 hc         1 ZAZ       0.039700
     28 H82          0.8390     1.1140     0.1300 hc         1 ZAZ       0.039700
     29 H91          2.3180    -0.4030     1.4210 hc         1 ZAZ       0.036200
     30 H92          2.3500    -1.5370     0.0890 hc         1 ZAZ       0.036200
     31 H101         3.4270     0.1810    -1.3670 hc         1 ZAZ       0.052200
     32 H102         3.3990     1.3310    -0.0400 hc         1 ZAZ       0.052200
     33 H111         4.8270    -0.1950     1.3170 h1         1 ZAZ       0.014700
     34 H112         4.8450    -1.3550    -0.0090 h1         1 ZAZ       0.014700
@<TRIPOS>BOND
     1     1     2 1   
     2     1     6 1   
     3     1    14 1   
     4     1    15 1   
     5     2     3 1   
     6     2    16 1   
     7     2    17 1   
     8     3     4 1   
     9     3    18 1   
    10     3    19 1   
    11     4     5 1   
    12     4    20 1   
    13     4    21 1   
    14     5     6 1   
    15     5    22 1   
    16     5    23 1   
    17     6     7 1   
    18     6    24 1   
    19     7     8 1   
    20     7    25 1   
    21     7    26 1   
    22     8     9 1   
    23     8    27 1   
    24     8    28 1   
    25     9    10 1   
    26     9    29 1   
    27     9    30 1   
    28    10    11 1   
    29    10    31 1   
    30    10    32 1   
    31    11    12 1   
    32    11    33 1   
    33    11    34 1   
    34    12    13 1   
@<TRIPOS>SUBSTRUCTURE
     1 ZAZ         1 TEMP              0 ****  ****    0 ROOT
