@<TRIPOS>MOLECULE
ZAZ
   34    34     1     0     0
SMALL
No Charge or Current Charge


@<TRIPOS>ATOM
      1 C1          -2.7610    -1.3020     0.1230 c6         1 ZAZ      -0.070400
      2 C2          -4.1550    -0.8240    -0.3550 c6         1 ZAZ      -0.072900
      3 C3          -4.5030     0.5620     0.2360 c6         1 ZAZ      -0.074400
      4 C4          -3.4090     1.6010    -0.1060 c6         1 ZAZ      -0.072900
      5 C5          -2.0120     1.1270     0.3660 c6         1 ZAZ      -0.070400
      6 C6          -1.6490    -0.2700    -0.2210 c6         1 ZAZ      -0.060700
      7 C7          -0.2560    -0.7840     0.2590 c3         1 ZAZ      -0.071400
      8 C8           0.9570     0.0790    -0.1660 c3         1 ZAZ      -0.074400
      9 C9           2.3110    -0.5400     0.2450 c3         1 ZAZ      -0.075400
     10 C10          3.5230     0.3220    -0.1750 c3         1 ZAZ      -0.081400
     11 C11          4.8730    -0.2990     0.2360 c3         1 ZAZ       0.163600
     12 O1           5.9440     0.5520    -0.1840 oh         1 ZAZ      -0.663000
     13 H1O          6.7800     0.1180     0.0980 ho         1 ZAZ       0.442000
     14 H11         -2.7860    -1.4750     1.2080 hc         1 ZAZ       0.037700
     15 H12         -2.5310    -2.2700    -0.3410 hc         1 ZAZ       0.037700
     16 H21         -4.1730    -0.7750    -1.4530 hc         1 ZAZ       0.037700
     17 H22         -4.9200    -1.5570    -0.0630 hc         1 ZAZ       0.037700
     18 H31         -5.4740     0.9000    -0.1520 hc         1 ZAZ       0.037200
     19 H32         -4.6120     0.4840     1.3270 hc         1 ZAZ       0.037200
     20 H41         -3.3920     1.7760    -1.1910 hc         1 ZAZ       0.037700
     21 H42         -3.6530     2.5650     0.3600 hc         1 ZAZ       0.037700
     22 H51         -1.2680     1.8750     0.0650 hc         1 ZAZ       0.037700
     23 H52         -1.9890     1.0870     1.4640 hc         1 ZAZ       0.037700
     24 H61         -1.5880    -0.1830    -1.3150 hc         1 ZAZ       0.044700
     25 H71         -0.2540    -0.8750     1.3520 hc         1 ZAZ       0.037200
     26 H72         -0.0990    -1.7980    -0.1290 hc         1 ZAZ       0.037200
     27 H81          0.9380     0.2150    -1.2550 hc         1 ZAZ       0.039700
     28 H82          0.8760     1.0750     0.2850 hc         1 ZAZ       0.039700
     29 H91          2.3280    -0.6790     1.3330 hc         1 ZAZ       0.036200
     30 H92          2.4050    -1.5350    -0.2070 hc         1 ZAZ       0.036200
     31 H101         3.5080     0.4610    -1.2630 hc         1 ZAZ       0.052200
     32 H102         3.4320     1.3170     0.2780 hc         1 ZAZ       0.052200
     33 H111         4.8960    -0.4280     1.3260 h1         1 ZAZ       0.014700
     34 H112         4.9720    -1.2900    -0.2250 h1         1 ZAZ       0.014700
@<TRIPOS>BOND
     1     1     2 1   
     2     1     6 1   
     3     1    14 1   
     4     1    15 1   
     5     2     3 1   
     6     2    16 1   
     7     2    17 1   
     8     3     4 1   
     9     3    18 1   
    10     3    19 1   
    11     4     5 1   
    12     4    20 1   
    13     4    21 1   
    14     5     6 1   
    15     5    22 1   
    16     5    23 1   
    17     6     7 1   
    18     6    24 1   
    19     7     8 1   
    20     7    25 1   
    21     7    26 1   
    22     8     9 1   
    23     8    27 1   
    24     8    28 1   
    25     9    10 1   
    26     9    29 1   
    27     9    30 1   
    28    10    11 1   
    29    10    31 1   
    30    10    32 1   
    31    11    12 1   
    32    11    33 1   
    33    11    34 1   
    34    12    13 1   
@<TRIPOS>SUBSTRUCTURE
     1 ZAZ         1 TEMP              0 ****  ****    0 ROOT
