@<TRIPOS>MOLECULE
ZB0
   30    30     1     0     0
SMALL
bcc


@<TRIPOS>ATOM
      1 C1          -6.7590     5.1190    38.9130 c6         1 ZB0       0.325900
      2 C2          -5.4440     5.6520    39.5110 c6         1 ZB0       0.048100
      3 C2M         -6.2170     7.0830    41.2370 c3         1 ZB0       0.119700
      4 C3          -4.3320     5.6300    38.4690 c6         1 ZB0       0.113100
      5 C4          -4.2330     4.2330    37.8640 c6         1 ZB0       0.122100
      6 C5          -5.5870     3.8350    37.2830 c6         1 ZB0       0.151100
      7 C6          -5.6160     2.4450    36.6850 c3         1 ZB0       0.150400
      8 O1          -7.2910     6.0180    37.9820 oh         1 ZB0      -0.624800
      9 O2          -5.6080     6.9710    39.9680 os         1 ZB0      -0.418600
     10 O3          -3.0780     5.9320    39.0340 os         1 ZB0      -0.419600
     11 O4          -3.2870     4.1920    36.8260 oh         1 ZB0      -0.595800
     12 O5          -6.5740     3.8840    38.3040 os         1 ZB0      -0.384600
     13 O6          -5.2230     1.4980    37.6500 oh         1 ZB0      -0.591800
     14 H1          -7.4810     4.9280    39.7180 h2         1 ZB0       0.073700
     15 HO1         -7.0840     6.9160    38.2690 ho         1 ZB0       0.431000
     16 H2          -5.1570     4.9870    40.3400 h1         1 ZB0       0.069700
     17 H2M1        -6.2030     8.1360    41.5150 h1         1 ZB0       0.035700
     18 H2M2        -7.2580     6.7450    41.2390 h1         1 ZB0       0.035700
     19 H2M3        -5.6710     6.5140    41.9960 h1         1 ZB0       0.035700
     20 H3          -4.5660     6.3420    37.6630 h1         1 ZB0       0.061700
     21 H3M1        -1.6040     7.3090    39.2020 h1         1 ZB0       0.034033
     22 H3M2        -2.7520     7.6460    37.8980 h1         1 ZB0       0.034033
     23 H3M3        -3.2130     7.9440    39.5840 h1         1 ZB0       0.034033
     24 H4          -3.9700     3.5270    38.6660 h1         1 ZB0       0.070700
     25 HO4         -2.4410     4.4760    37.1880 ho         1 ZB0       0.421000
     26 H5          -5.8370     4.5310    36.4710 h1         1 ZB0       0.064700
     27 H61         -6.6320     2.2520    36.3160 h1         1 ZB0       0.035700
     28 H62         -4.9560     2.4390    35.8110 h1         1 ZB0       0.035700
     29 HO6         -5.1850     0.6370    37.2240 ho         1 ZB0       0.403000
     30 C3M         -2.6580     7.2740    38.9250 c3         1 ZB0       0.128700
@<TRIPOS>BOND
     1     1     2 1   
     2     1     8 1   
     3     1    12 1   
     4     1    14 1   
     5     2     4 1   
     6     2     9 1   
     7     2    16 1   
     8     3     9 1   
     9     3    17 1   
    10     3    18 1   
    11     3    19 1   
    12     4     5 1   
    13     4    10 1   
    14     4    20 1   
    15     5     6 1   
    16     5    11 1   
    17     5    24 1   
    18     6     7 1   
    19     6    12 1   
    20     6    26 1   
    21     7    13 1   
    22     7    27 1   
    23     7    28 1   
    24     8    15 1   
    25    10    30 1   
    26    11    25 1   
    27    13    29 1   
    28    21    30 1   
    29    22    30 1   
    30    23    30 1   
@<TRIPOS>SUBSTRUCTURE
     1 ZB0         1 TEMP              0 ****  ****    0 ROOT
