@<TRIPOS>MOLECULE
ZB0
   30    30     1     0     0
SMALL
No Charge or Current Charge


@<TRIPOS>ATOM
      1 C1          -6.6880     5.0900    38.9910 c6         1 ZB0       0.372300
      2 C2          -5.3210     5.6930    39.4730 c6         1 ZB0       0.071300
      3 C2M         -6.2580     7.2810    41.1240 c3         1 ZB0       0.142900
      4 C3          -4.2510     5.6150    38.3280 c6         1 ZB0       0.136300
      5 C4          -4.2000     4.1880    37.7070 c6         1 ZB0       0.145300
      6 C5          -5.6200     3.7490    37.2470 c6         1 ZB0       0.174300
      7 C6          -5.6510     2.2930    36.6690 c3         1 ZB0       0.173600
      8 O1          -7.3130     5.9550    38.0430 oh         1 ZB0      -0.747000
      9 O2          -5.5180     7.0690    39.9050 os         1 ZB0      -0.465000
     10 O3          -2.9000     5.9590    38.7500 os         1 ZB0      -0.466000
     11 O4          -3.2350     4.1670    36.6330 oh         1 ZB0      -0.718000
     12 O5          -6.5250     3.7990    38.3810 os         1 ZB0      -0.431000
     13 O6          -5.3470     1.2670    37.6410 oh         1 ZB0      -0.714000
     14 H1          -7.3460     4.9800    39.8680 h2         1 ZB0       0.073700
     15 HO1         -7.1300     6.8580    38.3930 ho         1 ZB0       0.530000
     16 H2          -4.9590     5.1010    40.3260 h1         1 ZB0       0.069700
     17 H2M1        -6.2930     8.3510    41.3660 h1         1 ZB0       0.035700
     18 H2M2        -7.2910     6.9220    41.0320 h1         1 ZB0       0.035700
     19 H2M3        -5.7820     6.7590    41.9640 h1         1 ZB0       0.035700
     20 H3          -4.5500     6.3170    37.5340 h1         1 ZB0       0.061700
     21 H3M1        -1.5650     7.4740    39.2880 h1         1 ZB0       0.034033
     22 H3M2        -3.0550     8.0390    38.5010 h1         1 ZB0       0.034033
     23 H3M3        -3.0840     7.4760    40.1940 h1         1 ZB0       0.034033
     24 H4          -3.8810     3.4940    38.4990 h1         1 ZB0       0.070700
     25 HO4         -2.4770     4.7070    36.9660 ho         1 ZB0       0.520000
     26 H5          -5.9790     4.4300    36.4620 h1         1 ZB0       0.064700
     27 H61         -6.6540     2.1240    36.2530 h1         1 ZB0       0.035700
     28 H62         -4.9470     2.2380    35.8270 h1         1 ZB0       0.035700
     29 HO6         -5.4510     0.4000    37.1840 ho         1 ZB0       0.502000
     30 C3M         -2.6460     7.3020    39.2040 c3         1 ZB0       0.151900
@<TRIPOS>BOND
     1     1     2 1   
     2     1     8 1   
     3     1    12 1   
     4     1    14 1   
     5     2     4 1   
     6     2     9 1   
     7     2    16 1   
     8     3     9 1   
     9     3    17 1   
    10     3    18 1   
    11     3    19 1   
    12     4     5 1   
    13     4    10 1   
    14     4    20 1   
    15     5     6 1   
    16     5    11 1   
    17     5    24 1   
    18     6     7 1   
    19     6    12 1   
    20     6    26 1   
    21     7    13 1   
    22     7    27 1   
    23     7    28 1   
    24     8    15 1   
    25    10    30 1   
    26    11    25 1   
    27    13    29 1   
    28    21    30 1   
    29    22    30 1   
    30    23    30 1   
@<TRIPOS>SUBSTRUCTURE
     1 ZB0         1 TEMP              0 ****  ****    0 ROOT
