@<TRIPOS>MOLECULE
ZB1
   27    27     1     0     0
SMALL
abcg2


@<TRIPOS>ATOM
      1 C1          -2.2640     3.4130    37.0670 c6         1 ZB1       0.369300
      2 C2          -0.9580     4.1390    37.4300 c6         1 ZB1       0.075300
      3 C3          -0.5700     5.1160    36.3300 c6         1 ZB1       0.136300
      4 C4          -0.5360     4.3810    34.9930 c6         1 ZB1       0.143300
      5 C5          -1.8880     3.7200    34.7360 c6         1 ZB1       0.174300
      6 C6          -1.9450     2.9170    33.4530 c3         1 ZB1       0.172600
      7 O1          -3.3580     4.2840    37.1150 oh         1 ZB1      -0.685000
      8 O2          -1.1210     4.8460    38.6400 oh         1 ZB1      -0.725000
      9 O3           0.7110     5.6660    36.5370 os         1 ZB1      -0.467000
     10 O4          -0.2760     5.2630    33.9310 oh         1 ZB1      -0.717000
     11 O5          -2.2000     2.8390    35.8050 os         1 ZB1      -0.427000
     12 O6          -0.9420     1.9300    33.4580 oh         1 ZB1      -0.714000
     13 H1          -2.4080     2.5720    37.7600 h2         1 ZB1       0.067700
     14 HO1         -3.2430     4.8670    37.8750 ho         1 ZB1       0.470000
     15 H2          -0.1660     3.3840    37.5180 h1         1 ZB1       0.065700
     16 HO2         -1.0560     4.2260    39.3730 ho         1 ZB1       0.511000
     17 H3          -1.3210     5.9190    36.2670 h1         1 ZB1       0.063700
     18 H3M1         1.7650     7.3040    37.0860 h1         1 ZB1       0.034367
     19 H3M2         0.0840     7.6470    36.6570 h1         1 ZB1       0.034367
     20 H3M3         0.4630     6.8880    38.2130 h1         1 ZB1       0.034367
     21 H4           0.2340     3.5970    35.0530 h1         1 ZB1       0.068700
     22 HO4          0.5680     5.6910    34.1080 ho         1 ZB1       0.520000
     23 H5          -2.6520     4.5050    34.6460 h1         1 ZB1       0.065700
     24 H61         -1.8350     3.6130    32.6150 h1         1 ZB1       0.036700
     25 H62         -2.9480     2.4790    33.3700 h1         1 ZB1       0.036700
     26 HO6         -0.9190     1.5230    32.5880 ho         1 ZB1       0.502000
     27 C3M          0.7440     6.9310    37.1580 c3         1 ZB1       0.151900
@<TRIPOS>BOND
     1     1     2 1   
     2     1     7 1   
     3     1    11 1   
     4     1    13 1   
     5     2     3 1   
     6     2     8 1   
     7     2    15 1   
     8     3     4 1   
     9     3     9 1   
    10     3    17 1   
    11     4     5 1   
    12     4    10 1   
    13     4    21 1   
    14     5     6 1   
    15     5    11 1   
    16     5    23 1   
    17     6    12 1   
    18     6    24 1   
    19     6    25 1   
    20     7    14 1   
    21     8    16 1   
    22     9    27 1   
    23    10    22 1   
    24    12    26 1   
    25    18    27 1   
    26    19    27 1   
    27    20    27 1   
@<TRIPOS>SUBSTRUCTURE
     1 ZB1         1 TEMP              0 ****  ****    0 ROOT
