@<TRIPOS>MOLECULE
ZB1
   27    27     1     0     0
SMALL
No Charge or Current Charge


@<TRIPOS>ATOM
      1 C1          -2.3540     3.4210    37.0580 c6         1 ZB1       0.369300
      2 C2          -1.0110     4.1300    37.4420 c6         1 ZB1       0.075300
      3 C3          -0.5800     5.1130    36.2970 c6         1 ZB1       0.136300
      4 C4          -0.5290     4.3540    34.9400 c6         1 ZB1       0.143300
      5 C5          -1.9120     3.6870    34.6600 c6         1 ZB1       0.174300
      6 C6          -1.9240     2.8430    33.3410 c3         1 ZB1       0.172600
      7 O1          -3.4300     4.3560    37.0400 oh         1 ZB1      -0.685000
      8 O2          -1.1370     4.7850    38.7280 oh         1 ZB1      -0.725000
      9 O3           0.6980     5.7710    36.5250 os         1 ZB1      -0.467000
     10 O4          -0.1290     5.2650    33.8930 oh         1 ZB1      -0.717000
     11 O5          -2.2620     2.8020    35.7610 os         1 ZB1      -0.427000
     12 O6          -1.0670     1.6800    33.3790 oh         1 ZB1      -0.714000
     13 H1          -2.5630     2.6420    37.8090 h2         1 ZB1       0.067700
     14 HO1         -3.2810     4.8860    37.8550 ho         1 ZB1       0.470000
     15 H2          -0.2450     3.3420    37.5080 h1         1 ZB1       0.065700
     16 HO2         -0.2220     4.9130    39.0750 ho         1 ZB1       0.511000
     17 H3          -1.3510     5.8930    36.2040 h1         1 ZB1       0.063700
     18 H3M1         1.7160     7.4010    37.3470 h1         1 ZB1       0.034367
     19 H3M2        -0.0080     7.6820    37.0360 h1         1 ZB1       0.034367
     20 H3M3         0.5070     6.6850    38.4190 h1         1 ZB1       0.034367
     21 H4           0.2190     3.5510    35.0320 h1         1 ZB1       0.068700
     22 HO4          0.5810     5.8200    34.2980 ho         1 ZB1       0.520000
     23 H5          -2.6800     4.4680    34.5660 h1         1 ZB1       0.065700
     24 H61         -1.6380     3.4980    32.5070 h1         1 ZB1       0.036700
     25 H62         -2.9620     2.5340    33.1580 h1         1 ZB1       0.036700
     26 HO6         -1.1980     1.2000    32.5290 ho         1 ZB1       0.502000
     27 C3M          0.7230     6.9360    37.3750 c3         1 ZB1       0.151900
@<TRIPOS>BOND
     1     1     2 1   
     2     1     7 1   
     3     1    11 1   
     4     1    13 1   
     5     2     3 1   
     6     2     8 1   
     7     2    15 1   
     8     3     4 1   
     9     3     9 1   
    10     3    17 1   
    11     4     5 1   
    12     4    10 1   
    13     4    21 1   
    14     5     6 1   
    15     5    11 1   
    16     5    23 1   
    17     6    12 1   
    18     6    24 1   
    19     6    25 1   
    20     7    14 1   
    21     8    16 1   
    22     9    27 1   
    23    10    22 1   
    24    12    26 1   
    25    18    27 1   
    26    19    27 1   
    27    20    27 1   
@<TRIPOS>SUBSTRUCTURE
     1 ZB1         1 TEMP              0 ****  ****    0 ROOT
