@<TRIPOS>MOLECULE
ZB2
   27    27     1     0     0
SMALL
No Charge or Current Charge


@<TRIPOS>ATOM
      1 C1          -4.6720    11.7190    29.4740 c6         1 ZB2       0.372300
      2 C2          -5.1730    12.9080    30.3650 c6         1 ZB2       0.093300
      3 C2M         -3.4140    14.5470    29.7930 c3         1 ZB2       0.143900
      4 C3          -5.9320    12.3560    31.6050 c6         1 ZB2       0.144300
      5 C4          -7.0750    11.4000    31.1640 c6         1 ZB2       0.111300
      6 C5          -6.4700    10.2570    30.2890 c6         1 ZB2       0.170300
      7 C6          -7.5680     9.2830    29.7450 c3         1 ZB2       0.171600
      8 O1          -3.6530    10.9610    30.1290 oh         1 ZB2      -0.740000
      9 O2          -4.0980    13.7820    30.8060 os         1 ZB2      -0.455000
     10 O3          -6.4440    13.4320    32.4130 oh         1 ZB2      -0.715000
     11 O4          -7.7550    10.9010    32.3310 oh         1 ZB2      -0.717000
     12 O5          -5.7630    10.8320    29.1520 os         1 ZB2      -0.430000
     13 O6          -7.0490     8.2550    28.8760 oh         1 ZB2      -0.704000
     14 H1          -4.2710    12.1330    28.5340 h2         1 ZB2       0.074700
     15 HO1         -3.0280    11.6340    30.4840 ho         1 ZB2       0.529000
     16 H2          -5.8780    13.5050    29.7680 h1         1 ZB2       0.065700
     17 H2M1        -2.6610    15.1990    30.2540 h1         1 ZB2       0.035700
     18 H2M2        -2.9010    13.8920    29.0780 h1         1 ZB2       0.035700
     19 H2M3        -4.1200    15.1800    29.2410 h1         1 ZB2       0.035700
     20 H3          -5.2140    11.7680    32.1980 h1         1 ZB2       0.062700
     21 HO3         -5.7280    14.1130    32.4230 ho         1 ZB2       0.510000
     22 H4          -7.7810    11.9700    30.5410 h1         1 ZB2       0.050700
     23 HO4         -7.7720    11.6700    32.9520 ho         1 ZB2       0.510000
     24 H5          -5.7650     9.6660    30.8930 h1         1 ZB2       0.081700
     25 H61         -8.3190     9.8810    29.2110 h1         1 ZB2       0.031200
     26 H62         -8.0730     8.8210    30.6040 h1         1 ZB2       0.031200
     27 HO6         -7.8220     7.7390    28.5480 ho         1 ZB2       0.501000
@<TRIPOS>BOND
     1     1     2 1   
     2     1     8 1   
     3     1    12 1   
     4     1    14 1   
     5     2     4 1   
     6     2     9 1   
     7     2    16 1   
     8     3     9 1   
     9     3    17 1   
    10     3    18 1   
    11     3    19 1   
    12     4     5 1   
    13     4    10 1   
    14     4    20 1   
    15     5     6 1   
    16     5    11 1   
    17     5    22 1   
    18     6     7 1   
    19     6    12 1   
    20     6    24 1   
    21     7    13 1   
    22     7    25 1   
    23     7    26 1   
    24     8    15 1   
    25    10    21 1   
    26    11    23 1   
    27    13    27 1   
@<TRIPOS>SUBSTRUCTURE
     1 ZB2         1 TEMP              0 ****  ****    0 ROOT
