@<TRIPOS>MOLECULE
ZB2
   27    27     1     0     0
SMALL
bcc


@<TRIPOS>ATOM
      1 C1          -4.6790    11.6710    29.4110 c6         1 ZB2       0.325900
      2 C2          -5.0830    12.8760    30.2770 c6         1 ZB2       0.070100
      3 C2M         -3.4970    14.5360    29.6870 c3         1 ZB2       0.120700
      4 C3          -5.8000    12.4160    31.5360 c6         1 ZB2       0.121100
      5 C4          -6.9440    11.4710    31.1670 c6         1 ZB2       0.088100
      6 C5          -6.4220    10.3180    30.3140 c6         1 ZB2       0.147100
      7 C6          -7.5430     9.4290    29.8170 c3         1 ZB2       0.148400
      8 O1          -3.6520    10.9340    30.0120 oh         1 ZB2      -0.617800
      9 O2          -3.9460    13.6120    30.6550 os         1 ZB2      -0.408600
     10 O3          -6.2850    13.5520    32.2140 oh         1 ZB2      -0.592800
     11 O4          -7.5420    10.9270    32.3210 oh         1 ZB2      -0.594800
     12 O5          -5.7610    10.8360    29.1690 os         1 ZB2      -0.383600
     13 O6          -6.9870     8.3420    29.1150 oh         1 ZB2      -0.581800
     14 H1          -4.3690    12.0180    28.4170 h2         1 ZB2       0.074700
     15 HO1         -3.0790    11.5410    30.4950 ho         1 ZB2       0.430000
     16 H2          -5.7710    13.4980    29.6840 h1         1 ZB2       0.065700
     17 H2M1        -2.6480    15.0690    30.1120 h1         1 ZB2       0.035700
     18 H2M2        -3.1680    14.0550    28.7610 h1         1 ZB2       0.035700
     19 H2M3        -4.2760    15.2640    29.4370 h1         1 ZB2       0.035700
     20 H3          -5.0910    11.8600    32.1660 h1         1 ZB2       0.062700
     21 HO3         -6.2930    13.3690    33.1570 ho         1 ZB2       0.411000
     22 H4          -7.6810    12.0360    30.5740 h1         1 ZB2       0.050700
     23 HO4         -8.1090    11.5960    32.7160 ho         1 ZB2       0.411000
     24 H5          -5.7310     9.7120    30.9170 h1         1 ZB2       0.081700
     25 H61         -8.2160    10.0230    29.1830 h1         1 ZB2       0.031200
     26 H62         -8.1240     9.0960    30.6820 h1         1 ZB2       0.031200
     27 HO6         -7.7030     7.7480    28.8760 ho         1 ZB2       0.402000
@<TRIPOS>BOND
     1     1     2 1   
     2     1     8 1   
     3     1    12 1   
     4     1    14 1   
     5     2     4 1   
     6     2     9 1   
     7     2    16 1   
     8     3     9 1   
     9     3    17 1   
    10     3    18 1   
    11     3    19 1   
    12     4     5 1   
    13     4    10 1   
    14     4    20 1   
    15     5     6 1   
    16     5    11 1   
    17     5    22 1   
    18     6     7 1   
    19     6    12 1   
    20     6    24 1   
    21     7    13 1   
    22     7    25 1   
    23     7    26 1   
    24     8    15 1   
    25    10    21 1   
    26    11    23 1   
    27    13    27 1   
@<TRIPOS>SUBSTRUCTURE
     1 ZB2         1 TEMP              0 ****  ****    0 ROOT
