@<TRIPOS>MOLECULE
ZB3
   30    30     1     0     0
SMALL
abcg2


@<TRIPOS>ATOM
      1 C1          -8.9870    11.7320    32.6220 c6         1 ZB3       0.370300
      2 C2          -9.0920    12.1510    34.1000 c6         1 ZB3       0.097300
      3 C2M         -8.5330    14.4540    34.0440 c3         1 ZB3       0.142900
      4 C3          -8.8520    10.9670    35.0240 c6         1 ZB3       0.176300
      5 C4          -9.7700     9.8210    34.6140 c6         1 ZB3       0.105300
      6 C5          -9.5250     9.4780    33.1440 c6         1 ZB3       0.146300
      7 C6         -10.3830     8.3460    32.6270 c3         1 ZB3       0.158600
      8 C6M        -12.5750     7.5700    32.4300 c3         1 ZB3       0.144900
      9 O1          -7.6640    11.4470    32.2680 oh         1 ZB3      -0.747000
     10 O2          -8.1410    13.1440    34.3960 os         1 ZB3      -0.449000
     11 O3          -9.1020    11.3880    36.3410 oh         1 ZB3      -0.709000
     12 O4          -9.4840     8.7220    35.4500 oh         1 ZB3      -0.726000
     13 O5          -9.7810    10.6250    32.3460 os         1 ZB3      -0.431000
     14 O6         -11.7380     8.6070    32.8770 os         1 ZB3      -0.453000
     15 H1          -9.3910    12.5300    31.9860 h2         1 ZB3       0.074700
     16 HO1         -7.0800    12.0350    32.7630 ho         1 ZB3       0.534000
     17 H2         -10.1130    12.5230    34.2720 h1         1 ZB3       0.067700
     18 H2M1        -7.7380    15.1280    34.3580 h1         1 ZB3       0.035033
     19 H2M2        -8.6810    14.5800    32.9670 h1         1 ZB3       0.035033
     20 H2M3        -9.4580    14.7450    34.5520 h1         1 ZB3       0.035033
     21 H3          -7.8100    10.6290    34.9130 h1         1 ZB3       0.057700
     22 HO3         -8.9860    10.6260    36.9180 ho         1 ZB3       0.518000
     23 H4         -10.8090    10.1520    34.7430 h1         1 ZB3       0.068700
     24 HO4        -10.2850     8.2030    35.5670 ho         1 ZB3       0.516000
     25 H5          -8.4820     9.1520    33.0300 h1         1 ZB3       0.070700
     26 H61        -10.0620     7.4140    33.1130 h1         1 ZB3       0.037700
     27 H62        -10.1950     8.2140    31.5520 h1         1 ZB3       0.037700
     28 H6M1       -13.6010     7.8300    32.6840 h1         1 ZB3       0.029700
     29 H6M2       -12.5100     7.4290    31.3450 h1         1 ZB3       0.029700
     30 H6M3       -12.3310     6.6120    32.9070 h1         1 ZB3       0.029700
@<TRIPOS>BOND
     1     1     2 1   
     2     1     9 1   
     3     1    13 1   
     4     1    15 1   
     5     2     4 1   
     6     2    10 1   
     7     2    17 1   
     8     3    10 1   
     9     3    18 1   
    10     3    19 1   
    11     3    20 1   
    12     4     5 1   
    13     4    11 1   
    14     4    21 1   
    15     5     6 1   
    16     5    12 1   
    17     5    23 1   
    18     6     7 1   
    19     6    13 1   
    20     6    25 1   
    21     7    14 1   
    22     7    26 1   
    23     7    27 1   
    24     8    14 1   
    25     8    28 1   
    26     8    29 1   
    27     8    30 1   
    28     9    16 1   
    29    11    22 1   
    30    12    24 1   
@<TRIPOS>SUBSTRUCTURE
     1 ZB3         1 TEMP              0 ****  ****    0 ROOT
