@<TRIPOS>MOLECULE
ZB3
   30    30     1     0     0
SMALL
No Charge or Current Charge


@<TRIPOS>ATOM
      1 C1          -8.9620    11.7980    32.6660 c6         1 ZB3       0.370300
      2 C2          -9.0970    12.2080    34.1740 c6         1 ZB3       0.097300
      3 C2M         -8.4700    14.5890    33.9360 c3         1 ZB3       0.142900
      4 C3          -8.8410    10.9670    35.0890 c6         1 ZB3       0.176300
      5 C4          -9.7490     9.7740    34.6730 c6         1 ZB3       0.105300
      6 C5          -9.5010     9.4590    33.1640 c6         1 ZB3       0.146300
      7 C6         -10.3860     8.2990    32.6100 c3         1 ZB3       0.158600
      8 C6M        -12.6690     7.5060    32.4500 c3         1 ZB3       0.144900
      9 O1          -7.6080    11.4940    32.3230 oh         1 ZB3      -0.747000
     10 O2          -8.2010    13.3020    34.5250 os         1 ZB3      -0.449000
     11 O3          -9.0530    11.2590    36.4830 oh         1 ZB3      -0.709000
     12 O4          -9.4840     8.6370    35.5280 oh         1 ZB3      -0.726000
     13 O5          -9.7710    10.6430    32.3670 os         1 ZB3      -0.431000
     14 O6         -11.7730     8.5150    32.9440 os         1 ZB3      -0.453000
     15 H1          -9.3140    12.6380    32.0460 h2         1 ZB3       0.074700
     16 HO1         -7.0790    12.2210    32.7250 ho         1 ZB3       0.534000
     17 H2         -10.1310    12.5440    34.3420 h1         1 ZB3       0.067700
     18 H2M1        -7.7600    15.3360    34.3140 h1         1 ZB3       0.035033
     19 H2M2        -8.3760    14.5560    32.8430 h1         1 ZB3       0.035033
     20 H2M3        -9.4840    14.9280    34.1880 h1         1 ZB3       0.035033
     21 H3          -7.7960    10.6530    34.9410 h1         1 ZB3       0.057700
     22 HO3         -9.1550    10.3670    36.8960 ho         1 ZB3       0.518000
     23 H4         -10.7970    10.0930    34.7870 h1         1 ZB3       0.068700
     24 HO4        -10.2280     8.0000    35.4020 ho         1 ZB3       0.516000
     25 H5          -8.4500     9.1660    33.0210 h1         1 ZB3       0.070700
     26 H61        -10.0320     7.3530    33.0390 h1         1 ZB3       0.037700
     27 H62        -10.2510     8.2440    31.5220 h1         1 ZB3       0.037700
     28 H6M1       -13.7020     7.7350    32.7430 h1         1 ZB3       0.029700
     29 H6M2       -12.6290     7.4520    31.3540 h1         1 ZB3       0.029700
     30 H6M3       -12.4100     6.5200    32.8570 h1         1 ZB3       0.029700
@<TRIPOS>BOND
     1     1     2 1   
     2     1     9 1   
     3     1    13 1   
     4     1    15 1   
     5     2     4 1   
     6     2    10 1   
     7     2    17 1   
     8     3    10 1   
     9     3    18 1   
    10     3    19 1   
    11     3    20 1   
    12     4     5 1   
    13     4    11 1   
    14     4    21 1   
    15     5     6 1   
    16     5    12 1   
    17     5    23 1   
    18     6     7 1   
    19     6    13 1   
    20     6    25 1   
    21     7    14 1   
    22     7    26 1   
    23     7    27 1   
    24     8    14 1   
    25     8    28 1   
    26     8    29 1   
    27     8    30 1   
    28     9    16 1   
    29    11    22 1   
    30    12    24 1   
@<TRIPOS>SUBSTRUCTURE
     1 ZB3         1 TEMP              0 ****  ****    0 ROOT
