@<TRIPOS>MOLECULE
ZB4
   61    64     1     0     0
SMALL
No Charge or Current Charge


@<TRIPOS>ATOM
      1 C16        132.5450   114.8810   115.1730 c6         1 ZB4       0.164300
      2 C17        130.2380   112.0820   113.8560 ca         1 ZB4       0.220000
      3 C18        130.6740   110.7450   113.6180 ca         1 ZB4       0.116100
      4 C19        129.9280   109.9150   112.7460 ca         1 ZB4      -0.198000
      5 C20        128.7720   110.4020   112.1150 ca         1 ZB4      -0.073000
      6 C21        128.3500   111.7200   112.3420 ca         1 ZB4      -0.148000
      7 C22        129.0810   112.5530   113.2050 ca         1 ZB4      -0.064000
      8 C01        132.4760   118.2070   114.2510 ca         1 ZB4      -0.018000
      9 C02        131.5850   118.3800   115.3330 ca         1 ZB4      -0.298500
     10 C03        130.2330   118.0010   115.1920 ca         1 ZB4      -0.018000
     11 C05        130.6750   117.2540   112.9150 ca         1 ZB4      -0.056000
     12 C06        132.0180   117.6430   113.0480 ca         1 ZB4      -0.126500
     13 C07        133.2670   116.7010   117.4700 c6         1 ZB4       0.243500
     14 C08        134.5710   116.9250   118.2880 c6         1 ZB4      -0.071400
     15 C09        134.3590   116.7370   119.8160 c6         1 ZB4      -0.071400
     16 C23        132.3360   108.9520   114.0420 c3         1 ZB4       0.147900
     17 C04        129.7840   117.4360   113.9860 ca         1 ZB4      -0.126500
     18 C10        133.3060   115.6450   120.1430 c6         1 ZB4      -0.072400
     19 C11        133.2060   114.5910   119.0150 c6         1 ZB4      -0.079400
     20 C12        132.7320   115.2050   117.6490 c6         1 ZB4       0.180500
     21 C13        132.6040   112.8760   116.6280 c6         1 ZB4       0.164300
     22 C14        131.1290   112.6400   116.1620 c6         1 ZB4       0.180800
     23 C15        132.0150   113.8370   114.1340 c6         1 ZB4       0.180800
     24 N01        132.2170   117.6980   117.8370 n7         1 ZB4      -0.912300
     25 N02        133.0640   114.3080   116.4750 n3         1 ZB4      -0.738600
     26 N03        130.9330   112.9760   114.7110 nh         1 ZB4      -0.806400
     27 O01        131.1180   119.8970   117.4910 o          1 ZB4      -0.538500
     28 O02        133.5440   119.5550   116.7500 o          1 ZB4      -0.538500
     29 O03        131.8300   110.2840   114.2350 os         1 ZB4      -0.345100
     30 S01        132.1670   119.0740   116.8870 sy         1 ZB4       1.170600
     31 H1         133.3290   115.4810   114.6880 h1         1 ZB4       0.051450
     32 H2         131.7060   115.5630   115.3710 h1         1 ZB4       0.051450
     33 H3         130.2300   108.8910   112.5430 ha         1 ZB4       0.117000
     34 H4         128.2050   109.7580   111.4450 ha         1 ZB4       0.112000
     35 H5         127.4560   112.0980   111.8500 ha         1 ZB4       0.117000
     36 H6         128.7500   113.5730   113.3780 ha         1 ZB4       0.122000
     37 H8         129.5280   118.1400   116.0110 ha         1 ZB4       0.128500
     38 H9         130.3240   116.8150   111.9840 ha         1 ZB4       0.116000
     39 H10        132.7070   117.5060   112.2170 ha         1 ZB4       0.118000
     40 H11        133.5380   116.8390   116.4160 h1         1 ZB4       0.075700
     41 H12        135.3270   116.2100   117.9380 hc         1 ZB4       0.056700
     42 H13        134.9970   117.9170   118.0950 hc         1 ZB4       0.056700
     43 H14        135.3200   116.4810   120.2820 hc         1 ZB4       0.043200
     44 H15        134.0430   117.6870   120.2690 hc         1 ZB4       0.043200
     45 H16        133.2540   108.8070   114.6240 h1         1 ZB4       0.041367
     46 H17        131.6030   108.2050   114.3710 h1         1 ZB4       0.041367
     47 H18        132.5720   108.7740   112.9850 h1         1 ZB4       0.041367
     48 H19        128.7430   117.1390   113.8820 ha         1 ZB4       0.118000
     49 H20        132.3220   116.1110   120.2900 hc         1 ZB4       0.036200
     50 H21        133.5590   115.1590   121.0960 hc         1 ZB4       0.036200
     51 H22        132.5040   113.8110   119.3370 hc         1 ZB4       0.047700
     52 H23        134.1830   114.1030   118.8920 hc         1 ZB4       0.047700
     53 H24        131.6360   115.2680   117.7090 h1         1 ZB4       0.025700
     54 H25        132.7250   112.4950   117.6490 h1         1 ZB4       0.051450
     55 H26        133.2450   112.2300   116.0100 h1         1 ZB4       0.051450
     56 H27        130.4530   113.2480   116.7810 h1         1 ZB4       0.041450
     57 H28        130.8690   111.5880   116.3490 h1         1 ZB4       0.041450
     58 H29        132.8530   113.2120   113.7930 h1         1 ZB4       0.041450
     59 H30        131.6330   114.3810   113.2570 h1         1 ZB4       0.041450
     60 H31        131.3180   117.3070   117.5720 hn         1 ZB4       0.492000
     61 H7         133.5210   118.4990   114.3380 ha         1 ZB4       0.128500
@<TRIPOS>BOND
     1     1    23 1   
     2     1    25 1   
     3     1    31 1   
     4     1    32 1   
     5     2     3 ar  
     6     2     7 ar  
     7     2    26 1   
     8     3     4 ar  
     9     3    29 1   
    10     4     5 ar  
    11     4    33 1   
    12     5     6 ar  
    13     5    34 1   
    14     6     7 ar  
    15     6    35 1   
    16     7    36 1   
    17     8     9 ar  
    18     8    12 ar  
    19     8    61 1   
    20     9    10 ar  
    21     9    30 1   
    22    10    17 ar  
    23    10    37 1   
    24    11    12 ar  
    25    11    17 ar  
    26    11    38 1   
    27    12    39 1   
    28    13    14 1   
    29    13    20 1   
    30    13    24 1   
    31    13    40 1   
    32    14    15 1   
    33    14    41 1   
    34    14    42 1   
    35    15    18 1   
    36    15    43 1   
    37    15    44 1   
    38    16    29 1   
    39    16    45 1   
    40    16    46 1   
    41    16    47 1   
    42    17    48 1   
    43    18    19 1   
    44    18    49 1   
    45    18    50 1   
    46    19    20 1   
    47    19    51 1   
    48    19    52 1   
    49    20    25 1   
    50    20    53 1   
    51    21    22 1   
    52    21    25 1   
    53    21    54 1   
    54    21    55 1   
    55    22    26 1   
    56    22    56 1   
    57    22    57 1   
    58    23    26 1   
    59    23    58 1   
    60    23    59 1   
    61    24    30 1   
    62    24    60 1   
    63    27    30 2   
    64    28    30 2   
@<TRIPOS>SUBSTRUCTURE
     1 ZB4         1 TEMP              0 ****  ****    0 ROOT
