@<TRIPOS>MOLECULE
ZB4
   61    64     1     0     0
SMALL
abcg2


@<TRIPOS>ATOM
      1 C16        133.1070   114.6960   115.2150 c6         1 ZB4       0.164300
      2 C17        130.5100   112.3360   114.0010 ca         1 ZB4       0.220000
      3 C18        130.8760   111.0590   113.5270 ca         1 ZB4       0.116100
      4 C19        130.0330   110.3740   112.6560 ca         1 ZB4      -0.198000
      5 C20        128.8260   110.9420   112.2600 ca         1 ZB4      -0.073000
      6 C21        128.4480   112.1890   112.7270 ca         1 ZB4      -0.148000
      7 C22        129.2970   112.8710   113.5920 ca         1 ZB4      -0.064000
      8 C01        131.9970   117.8650   113.7770 ca         1 ZB4      -0.018000
      9 C02        131.5170   118.0630   115.0620 ca         1 ZB4      -0.298500
     10 C03        130.2450   117.6390   115.4320 ca         1 ZB4      -0.018000
     11 C05        129.9290   116.7720   113.2120 ca         1 ZB4      -0.056000
     12 C06        131.1920   117.2160   112.8500 ca         1 ZB4      -0.126500
     13 C07        133.5100   116.5880   117.4470 c6         1 ZB4       0.243500
     14 C08        134.5610   116.6020   118.5490 c6         1 ZB4      -0.071400
     15 C09        133.9170   116.6830   119.9370 c6         1 ZB4      -0.071400
     16 C23        132.4740   109.3020   113.5220 c3         1 ZB4       0.147900
     17 C04        129.4550   116.9860   114.5020 ca         1 ZB4      -0.126500
     18 C10        132.5860   115.9170   119.9870 c6         1 ZB4      -0.072400
     19 C11        132.5820   114.7810   118.9730 c6         1 ZB4      -0.079400
     20 C12        132.6490   115.2930   117.5270 c6         1 ZB4       0.180500
     21 C13        132.8100   112.9190   116.8140 c6         1 ZB4       0.164300
     22 C14        131.4350   112.5900   116.2440 c6         1 ZB4       0.180800
     23 C15        132.5800   113.5840   114.3190 c6         1 ZB4       0.180800
     24 N01        132.7040   117.8110   117.5290 n7         1 ZB4      -0.912300
     25 N02        133.2210   114.2990   116.6240 n3         1 ZB4      -0.738600
     26 N03        131.3340   113.0840   114.8720 nh         1 ZB4      -0.806400
     27 O01        131.7970   119.9900   116.8070 o          1 ZB4      -0.538500
     28 O02        133.8480   119.0510   115.6890 o          1 ZB4      -0.538500
     29 O03        132.0530   110.5760   113.9640 os         1 ZB4      -0.345100
     30 S01        132.5360   118.8520   116.2840 sy         1 ZB4       1.170600
     31 H1         134.0680   115.0430   114.8180 h1         1 ZB4       0.051450
     32 H2         132.4070   115.5310   115.1200 h1         1 ZB4       0.051450
     33 H3         130.2990   109.3970   112.2750 ha         1 ZB4       0.117000
     34 H4         128.1850   110.3940   111.5820 ha         1 ZB4       0.112000
     35 H5         127.5100   112.6310   112.4210 ha         1 ZB4       0.117000
     36 H6         129.0260   113.8500   113.9680 ha         1 ZB4       0.122000
     37 H8         129.8740   117.7950   116.4380 ha         1 ZB4       0.128500
     38 H9         129.3100   116.2580   112.4890 ha         1 ZB4       0.116000
     39 H10        131.5590   117.0520   111.8450 ha         1 ZB4       0.118000
     40 H11        134.0200   116.6110   116.4850 h1         1 ZB4       0.075700
     41 H12        135.1490   115.6850   118.4550 hc         1 ZB4       0.056700
     42 H13        135.2510   117.4320   118.3920 hc         1 ZB4       0.056700
     43 H14        134.6090   116.2690   120.6720 hc         1 ZB4       0.043200
     44 H15        133.7610   117.7260   120.2190 hc         1 ZB4       0.043200
     45 H16        133.4350   109.1140   113.9950 h1         1 ZB4       0.041367
     46 H17        131.7760   108.5150   113.8180 h1         1 ZB4       0.041367
     47 H18        132.6030   109.2670   112.4370 h1         1 ZB4       0.041367
     48 H19        128.4690   116.6410   114.7820 ha         1 ZB4       0.118000
     49 H20        131.7390   116.5850   119.8030 hc         1 ZB4       0.036200
     50 H21        132.4200   115.5150   120.9880 hc         1 ZB4       0.036200
     51 H22        131.6950   114.1570   119.1030 hc         1 ZB4       0.047700
     52 H23        133.4450   114.1410   119.1770 hc         1 ZB4       0.047700
     53 H24        131.6240   115.5630   117.2160 h1         1 ZB4       0.025700
     54 H25        132.8350   112.6520   117.8680 h1         1 ZB4       0.051450
     55 H26        133.5530   112.2710   116.3400 h1         1 ZB4       0.051450
     56 H27        130.6510   113.0460   116.8610 h1         1 ZB4       0.041450
     57 H28        131.2890   111.5060   116.3090 h1         1 ZB4       0.041450
     58 H29        133.3460   112.8140   114.1640 h1         1 ZB4       0.041450
     59 H30        132.3760   114.0180   113.3380 h1         1 ZB4       0.041450
     60 H31        131.9110   117.8130   118.1590 hn         1 ZB4       0.492000
     61 H7         132.9880   118.1960   113.4980 ha         1 ZB4       0.128500
@<TRIPOS>BOND
     1     1    23 1   
     2     1    25 1   
     3     1    31 1   
     4     1    32 1   
     5     2     3 ar  
     6     2     7 ar  
     7     2    26 1   
     8     3     4 ar  
     9     3    29 1   
    10     4     5 ar  
    11     4    33 1   
    12     5     6 ar  
    13     5    34 1   
    14     6     7 ar  
    15     6    35 1   
    16     7    36 1   
    17     8     9 ar  
    18     8    12 ar  
    19     8    61 1   
    20     9    10 ar  
    21     9    30 1   
    22    10    17 ar  
    23    10    37 1   
    24    11    12 ar  
    25    11    17 ar  
    26    11    38 1   
    27    12    39 1   
    28    13    14 1   
    29    13    20 1   
    30    13    24 1   
    31    13    40 1   
    32    14    15 1   
    33    14    41 1   
    34    14    42 1   
    35    15    18 1   
    36    15    43 1   
    37    15    44 1   
    38    16    29 1   
    39    16    45 1   
    40    16    46 1   
    41    16    47 1   
    42    17    48 1   
    43    18    19 1   
    44    18    49 1   
    45    18    50 1   
    46    19    20 1   
    47    19    51 1   
    48    19    52 1   
    49    20    25 1   
    50    20    53 1   
    51    21    22 1   
    52    21    25 1   
    53    21    54 1   
    54    21    55 1   
    55    22    26 1   
    56    22    56 1   
    57    22    57 1   
    58    23    26 1   
    59    23    58 1   
    60    23    59 1   
    61    24    30 1   
    62    24    60 1   
    63    27    30 2   
    64    28    30 2   
@<TRIPOS>SUBSTRUCTURE
     1 ZB4         1 TEMP              0 ****  ****    0 ROOT
