@<TRIPOS>MOLECULE
ZB9
   51    54     1     0     0
SMALL
abcg2


@<TRIPOS>ATOM
      1 N1         -15.3320     5.6470   -19.8440 nb         1 ZB9      -0.300000
      2 N3         -18.2370     5.1960   -17.1490 na         1 ZB9      -0.317400
      3 C4         -17.3540     5.3330   -18.1650 ca         1 ZB9       0.136500
      4 C5         -16.3770     6.0190   -16.2300 cc         1 ZB9      -0.207200
      5 C6         -17.6490     5.5990   -15.9800 cd         1 ZB9      -0.178100
      6 C7         -12.8580     6.4650   -19.3000 c3         1 ZB9       0.219100
      7 C8         -13.7060     7.5120   -17.2080 c6         1 ZB9       0.215500
      8 C10        -12.9480     9.8050   -16.5100 c6         1 ZB9      -0.101400
      9 C13        -13.1590     7.6810   -13.8630 c          1 ZB9       0.566100
     10 C15        -13.0090     7.6460   -10.6480 ca         1 ZB9       0.364000
     11 C17        -11.2150     6.2590    -9.8490 ca         1 ZB9       0.175500
     12 C20        -13.6950     7.3810    -9.4510 ca         1 ZB9      -0.186500
     13 C1         -16.5120     5.1400   -20.1900 ca         1 ZB9       0.174900
     14 C11        -12.0120     9.1430   -15.5090 c6         1 ZB9       0.093000
     15 C12        -12.7670     6.9280   -16.1460 c6         1 ZB9       0.077000
     16 C14        -12.9960     8.8020   -12.8270 c3         1 ZB9       0.149800
     17 C16        -11.7490     7.0610   -10.8420 ca         1 ZB9      -0.186500
     18 C18        -11.8690     5.9890    -8.6590 ca         1 ZB9      -0.154000
     19 C19        -13.1180     6.5720    -8.4960 ca         1 ZB9       0.175500
     20 C2         -15.1260     6.0510   -18.5870 ca         1 ZB9       0.431900
     21 C3         -16.1660     5.8720   -17.6400 ca         1 ZB9      -0.240800
     22 C9         -13.2080     8.8770   -17.6920 c6         1 ZB9      -0.095400
     23 N2         -17.5720     4.9680   -19.4310 nb         1 ZB9      -0.224000
     24 N4         -13.9090     6.5790   -18.3070 nh         1 ZB9      -0.779300
     25 N5         -12.5740     7.8770   -15.0640 n          1 ZB9      -0.404800
     26 N6         -13.5670     8.4910   -11.5570 nu         1 ZB9      -0.957200
     27 O1         -13.7820     6.6700   -13.5800 o          1 ZB9      -0.584100
     28 CL1        -13.9810     6.2760    -7.0220 cl         1 ZB9      -0.202500
     29 CL2         -9.6550     5.5500   -10.1130 cl         1 ZB9      -0.202500
     30 H1         -19.1690     4.8250   -17.2400 hn         1 ZB9       0.361000
     31 H2         -15.6870     6.3600   -15.4760 ha         1 ZB9       0.217000
     32 H3         -18.1870     5.5500   -15.0480 h4         1 ZB9       0.218000
     33 H4         -11.8940     6.6340   -18.8250 h1         1 ZB9       0.042033
     34 H5         -12.8460     5.4640   -19.7250 h1         1 ZB9       0.042033
     35 H6         -12.9640     7.1790   -20.1200 h1         1 ZB9       0.042033
     36 H7         -14.6730     7.6860   -16.7370 h1         1 ZB9       0.076700
     37 H8         -12.5060    10.7390   -16.8600 hc         1 ZB9       0.052200
     38 H9         -13.8870    10.0610   -16.0100 hc         1 ZB9       0.052200
     39 H10        -14.6700     7.8210    -9.2780 ha         1 ZB9       0.129500
     40 H11        -16.6060     4.8420   -21.2290 h5         1 ZB9       0.043100
     41 H12        -11.0460     8.9400   -15.9810 h1         1 ZB9       0.053700
     42 H13        -11.8120     9.8040   -14.6700 h1         1 ZB9       0.053700
     43 H14        -13.1690     5.9970   -15.7510 h1         1 ZB9       0.073700
     44 H15        -11.7890     6.7050   -16.5840 h1         1 ZB9       0.073700
     45 H16        -11.9410     9.0620   -12.7110 h1         1 ZB9       0.068200
     46 H17        -13.4860     9.7040   -13.1980 h1         1 ZB9       0.068200
     47 H18        -11.1860     7.2240   -11.7500 ha         1 ZB9       0.129500
     48 H19        -11.4310     5.3580    -7.9000 ha         1 ZB9       0.146000
     49 H20        -12.2770     8.7710   -18.2560 hc         1 ZB9       0.054700
     50 H21        -13.9450     9.3130   -18.3690 hc         1 ZB9       0.054700
     51 H22        -14.5340     8.7320   -11.4230 hn         1 ZB9       0.493000
@<TRIPOS>BOND
     1     1    13 ar  
     2     1    20 ar  
     3     2     3 1   
     4     2     5 1   
     5     2    30 1   
     6     3    21 ar  
     7     3    23 ar  
     8     4     5 2   
     9     4    21 1   
    10     4    31 1   
    11     5    32 1   
    12     6    24 1   
    13     6    33 1   
    14     6    34 1   
    15     6    35 1   
    16     7    15 1   
    17     7    22 1   
    18     7    24 1   
    19     7    36 1   
    20     8    14 1   
    21     8    22 1   
    22     8    37 1   
    23     8    38 1   
    24     9    16 1   
    25     9    25 1   
    26     9    27 2   
    27    10    12 ar  
    28    10    17 ar  
    29    10    26 1   
    30    11    17 ar  
    31    11    18 ar  
    32    11    29 1   
    33    12    19 ar  
    34    12    39 1   
    35    13    23 ar  
    36    13    40 1   
    37    14    25 1   
    38    14    41 1   
    39    14    42 1   
    40    15    25 1   
    41    15    43 1   
    42    15    44 1   
    43    16    26 1   
    44    16    45 1   
    45    16    46 1   
    46    17    47 1   
    47    18    19 ar  
    48    18    48 1   
    49    19    28 1   
    50    20    21 ar  
    51    20    24 1   
    52    22    49 1   
    53    22    50 1   
    54    26    51 1   
@<TRIPOS>SUBSTRUCTURE
     1 ZB9         1 TEMP              0 ****  ****    0 ROOT
