@<TRIPOS>MOLECULE
ZB9
   51    54     1     0     0
SMALL
No Charge or Current Charge


@<TRIPOS>ATOM
      1 N1         -15.4420     5.9840   -19.9400 nb         1 ZB9      -0.300000
      2 N3         -18.3070     5.0920   -17.1090 na         1 ZB9      -0.317400
      3 C4         -17.4730     5.3740   -18.1790 ca         1 ZB9       0.136500
      4 C5         -16.2520     5.5890   -16.2750 cc         1 ZB9      -0.207200
      5 C6         -17.5400     5.2220   -15.9250 cd         1 ZB9      -0.178100
      6 C7         -12.7180     5.9770   -19.0630 c3         1 ZB9       0.219100
      7 C8         -13.6910     7.4360   -17.1970 c6         1 ZB9       0.215500
      8 C10        -13.0000     9.8540   -16.7480 c6         1 ZB9      -0.101400
      9 C13        -13.2270     7.9890   -13.7480 c          1 ZB9       0.566100
     10 C15        -12.9050     7.8340   -10.4980 ca         1 ZB9       0.364000
     11 C17        -11.1430     6.2780    -9.8790 ca         1 ZB9       0.175500
     12 C20        -13.7150     7.3130    -9.4800 ca         1 ZB9      -0.186500
     13 C1         -16.7010     5.6570   -20.3140 ca         1 ZB9       0.174900
     14 C11        -12.0910     9.3570   -15.5970 c6         1 ZB9       0.093000
     15 C12        -12.7410     7.0040   -16.0430 c6         1 ZB9       0.077000
     16 C14        -12.9910     9.1540   -12.7160 c3         1 ZB9       0.149800
     17 C16        -11.6140     7.3170   -10.6940 ca         1 ZB9      -0.186500
     18 C18        -11.9550     5.7530    -8.8640 ca         1 ZB9      -0.154000
     19 C19        -13.2410     6.2740    -8.6660 ca         1 ZB9       0.175500
     20 C2         -15.1900     6.0150   -18.6130 ca         1 ZB9       0.431900
     21 C3         -16.2230     5.6940   -17.7080 ca         1 ZB9      -0.240800
     22 C9         -13.1830     8.7600   -17.8320 c6         1 ZB9      -0.095400
     23 N2         -17.7360     5.3520   -19.4980 nb         1 ZB9      -0.224000
     24 N4         -13.8770     6.3640   -18.2180 nh         1 ZB9      -0.779300
     25 N5         -12.6150     8.0850   -15.0230 n          1 ZB9      -0.404800
     26 N6         -13.3980     8.8660   -11.2970 nu         1 ZB9      -0.957200
     27 O1         -13.8920     6.9970   -13.4600 o          1 ZB9      -0.584100
     28 Cl1        -14.2640     5.6220    -7.3940 cl         1 ZB9      -0.202500
     29 Cl2         -9.5270     5.6330   -10.1300 cl         1 ZB9      -0.202500
     30 H1         -19.2870     4.8300   -17.1730 hn         1 ZB9       0.361000
     31 H2         -15.4320     5.7440   -15.5750 ha         1 ZB9       0.217000
     32 H3         -17.9600     5.0390   -14.9370 h4         1 ZB9       0.218000
     33 H4         -11.7770     6.0260   -18.4990 h1         1 ZB9       0.042033
     34 H5         -12.8340     4.9450   -19.4220 h1         1 ZB9       0.042033
     35 H6         -12.6340     6.6430   -19.9320 h1         1 ZB9       0.042033
     36 H7         -14.6620     7.6690   -16.7350 h1         1 ZB9       0.076700
     37 H8         -12.5710    10.7600   -17.1980 hc         1 ZB9       0.052200
     38 H9         -13.9800    10.1410   -16.3420 hc         1 ZB9       0.052200
     39 H10        -14.7130     7.7080    -9.3190 ha         1 ZB9       0.129500
     40 H11        -16.9020     5.6380   -21.3840 h5         1 ZB9       0.043100
     41 H12        -11.0780     9.1780   -15.9860 h1         1 ZB9       0.053700
     42 H13        -12.0040    10.1460   -14.8390 h1         1 ZB9       0.053700
     43 H14        -13.1090     6.0750   -15.5890 h1         1 ZB9       0.073700
     44 H15        -11.7420     6.7860   -16.4450 h1         1 ZB9       0.073700
     45 H16        -11.9230     9.4060   -12.7490 h1         1 ZB9       0.068200
     46 H17        -13.5380    10.0290   -13.0930 h1         1 ZB9       0.068200
     47 H18        -10.9700     7.7150   -11.4700 ha         1 ZB9       0.129500
     48 H19        -11.5890     4.9480    -8.2330 ha         1 ZB9       0.146000
     49 H20        -12.2250     8.5980   -18.3430 hc         1 ZB9       0.054700
     50 H21        -13.8940     9.1050   -18.5960 hc         1 ZB9       0.054700
     51 H22        -14.3330     9.1870   -11.0310 hn         1 ZB9       0.493000
@<TRIPOS>BOND
     1     1    13 ar  
     2     1    20 ar  
     3     2     3 1   
     4     2     5 1   
     5     2    30 1   
     6     3    21 ar  
     7     3    23 ar  
     8     4     5 2   
     9     4    21 1   
    10     4    31 1   
    11     5    32 1   
    12     6    24 1   
    13     6    33 1   
    14     6    34 1   
    15     6    35 1   
    16     7    15 1   
    17     7    22 1   
    18     7    24 1   
    19     7    36 1   
    20     8    14 1   
    21     8    22 1   
    22     8    37 1   
    23     8    38 1   
    24     9    16 1   
    25     9    25 1   
    26     9    27 2   
    27    10    12 ar  
    28    10    17 ar  
    29    10    26 1   
    30    11    17 ar  
    31    11    18 ar  
    32    11    29 1   
    33    12    19 ar  
    34    12    39 1   
    35    13    23 ar  
    36    13    40 1   
    37    14    25 1   
    38    14    41 1   
    39    14    42 1   
    40    15    25 1   
    41    15    43 1   
    42    15    44 1   
    43    16    26 1   
    44    16    45 1   
    45    16    46 1   
    46    17    47 1   
    47    18    19 ar  
    48    18    48 1   
    49    19    28 1   
    50    20    21 ar  
    51    20    24 1   
    52    22    49 1   
    53    22    50 1   
    54    26    51 1   
@<TRIPOS>SUBSTRUCTURE
     1 ZB9         1 TEMP              0 ****  ****    0 ROOT
