@<TRIPOS>MOLECULE
ZBA
   65    68     1     0     0
SMALL
abcg2


@<TRIPOS>ATOM
      1 O18         59.7530    10.1420   -22.2110 o          1 ZBA      -0.492000
      2 C44         58.5720    10.2960   -21.9910 c          1 ZBA       0.597100
      3 C45         57.4690     9.5590   -22.7020 c3         1 ZBA      -0.104200
      4 C46         57.1530     8.2050   -22.1010 c2         1 ZBA      -0.110400
      5 C48         57.7350     7.7290   -21.0030 c2         1 ZBA      -0.309000
      6 C47         56.1040     7.4410   -22.8560 c3         1 ZBA      -0.057900
      7 O17         58.0880    11.1240   -21.0590 os         1 ZBA      -0.448100
      8 C31         59.0420    11.8420   -20.2120 c6         1 ZBA       0.210500
      9 C30         59.6050    13.0810   -20.8950 c6         1 ZBA      -0.078400
     10 C32         58.3140    12.1160   -18.9260 c2         1 ZBA      -0.099400
     11 C39         57.9620    10.9160   -18.1010 c3         1 ZBA      -0.053900
     12 C33         58.0140    13.3610   -18.5670 c2         1 ZBA      -0.193200
     13 C34         58.3330    14.5910   -19.3630 c6         1 ZBA       0.198500
     14 O10         59.4080    15.2350   -18.6480 os         1 ZBA      -0.432000
     15 C29         58.6750    14.3050   -20.8490 c6         1 ZBA      -0.055000
     16 C38         57.3390    14.0020   -21.5410 c3         1 ZBA       0.166600
     17 O12         57.5850    13.4540   -22.8510 os         1 ZBA      -0.452100
     18 C40         56.5120    13.1430   -23.5880 c          1 ZBA       0.589100
     19 C41         56.9100    12.6620   -24.9520 c3         1 ZBA      -0.156100
     20 O13         55.3740    13.2590   -23.1890 o          1 ZBA      -0.482000
     21 C28         59.3680    15.5880   -21.4730 c5         1 ZBA      -0.023000
     22 C37         59.7110    15.4550   -22.9530 c3         1 ZBA      -0.077100
     23 C35         60.5910    15.9060   -20.6100 cx         1 ZBA       0.048000
     24 C25         59.9920    16.3560   -19.3010 c5         1 ZBA       0.198300
     25 C36         61.9500    15.4160   -20.7710 cx         1 ZBA       0.113600
     26 O11         61.6080    16.7640   -21.1550 op         1 ZBA      -0.438000
     27 C27         58.4690    16.8310   -21.1460 c5         1 ZBA       0.127300
     28 C26         58.9780    17.3940   -19.8000 c5         1 ZBA       0.129300
     29 O16         57.9720    17.6330   -18.8330 oh         1 ZBA      -0.700000
     30 O14         58.6020    17.8640   -22.1430 os         1 ZBA      -0.448100
     31 C42         57.6740    17.9250   -23.1180 c          1 ZBA       0.590100
     32 O15         56.7250    17.1760   -23.1850 o          1 ZBA      -0.483000
     33 C43         57.9770    19.0300   -24.0830 c3         1 ZBA      -0.154100
     34 H45         56.5570    10.1610   -22.6960 hc         1 ZBA       0.077700
     35 H45A        57.7660     9.4300   -23.7460 hc         1 ZBA       0.077700
     36 H48         57.4640     6.7570   -20.6100 ha         1 ZBA       0.167500
     37 H48A        58.4950     8.2760   -20.4590 ha         1 ZBA       0.167500
     38 H47         55.8690     6.4970   -22.3650 hc         1 ZBA       0.044033
     39 H47A        55.1860     8.0300   -22.9430 hc         1 ZBA       0.044033
     40 H47B        56.4410     7.2310   -23.8750 hc         1 ZBA       0.044033
     41 H31         59.8650    11.1510   -20.0210 h1         1 ZBA       0.071700
     42 H30         60.5260    13.3200   -20.3670 hc         1 ZBA       0.068200
     43 H30A        59.8800    12.8310   -21.9160 hc         1 ZBA       0.068200
     44 H39         57.4580    11.2030   -17.1780 hc         1 ZBA       0.048033
     45 H39A        57.3100    10.2430   -18.6620 hc         1 ZBA       0.048033
     46 H39B        58.8620    10.3470   -17.8490 hc         1 ZBA       0.048033
     47 H33         57.5220    13.5410   -17.6170 ha         1 ZBA       0.191000
     48 H34         57.4620    15.2530   -19.3240 h1         1 ZBA       0.064700
     49 H38         56.7660    13.2790   -20.9650 h1         1 ZBA       0.066700
     50 H38A        56.7290    14.8950   -21.6540 h1         1 ZBA       0.066700
     51 H41         56.0580    12.2030   -25.4460 hc         1 ZBA       0.069033
     52 H41A        57.2470    13.5210   -25.5380 hc         1 ZBA       0.069033
     53 H41B        57.7380    11.9580   -24.8860 hc         1 ZBA       0.069033
     54 H37         60.3110    16.3050   -23.2670 hc         1 ZBA       0.051033
     55 H37A        60.2870    14.5510   -23.1400 hc         1 ZBA       0.051033
     56 H37B        58.8190    15.4110   -23.5700 hc         1 ZBA       0.051033
     57 H25         60.7150    16.7750   -18.6050 h1         1 ZBA       0.106700
     58 H36         62.5910    15.3330   -19.8990 h1         1 ZBA       0.083700
     59 H36A        62.1870    14.7580   -21.6000 h1         1 ZBA       0.083700
     60 H27         57.4180    16.5790   -21.0770 h1         1 ZBA       0.083700
     61 H26         59.5350    18.3110   -20.0120 h1         1 ZBA       0.070700
     62 HO16        57.4230    18.3670   -19.1360 ho         1 ZBA       0.509000
     63 H43         57.2470    19.0270   -24.8870 hc         1 ZBA       0.072700
     64 H43A        57.9540    19.9880   -23.5610 hc         1 ZBA       0.072700
     65 H43B        58.9820    18.8980   -24.4880 hc         1 ZBA       0.072700
@<TRIPOS>BOND
     1     1     2 2   
     2     2     3 1   
     3     2     7 1   
     4     3     4 1   
     5     3    34 1   
     6     3    35 1   
     7     4     5 2   
     8     4     6 1   
     9     5    36 1   
    10     5    37 1   
    11     6    38 1   
    12     6    39 1   
    13     6    40 1   
    14     7     8 1   
    15     8     9 1   
    16     8    10 1   
    17     8    41 1   
    18     9    15 1   
    19     9    42 1   
    20     9    43 1   
    21    10    11 1   
    22    10    12 2   
    23    11    44 1   
    24    11    45 1   
    25    11    46 1   
    26    12    13 1   
    27    12    47 1   
    28    13    14 1   
    29    13    15 1   
    30    13    48 1   
    31    14    24 1   
    32    15    16 1   
    33    15    21 1   
    34    16    17 1   
    35    16    49 1   
    36    16    50 1   
    37    17    18 1   
    38    18    19 1   
    39    18    20 2   
    40    19    51 1   
    41    19    52 1   
    42    19    53 1   
    43    21    22 1   
    44    21    23 1   
    45    21    27 1   
    46    22    54 1   
    47    22    55 1   
    48    22    56 1   
    49    23    24 1   
    50    23    25 1   
    51    23    26 1   
    52    24    28 1   
    53    24    57 1   
    54    25    26 1   
    55    25    58 1   
    56    25    59 1   
    57    27    28 1   
    58    27    30 1   
    59    27    60 1   
    60    28    29 1   
    61    28    61 1   
    62    29    62 1   
    63    30    31 1   
    64    31    32 2   
    65    31    33 1   
    66    33    63 1   
    67    33    64 1   
    68    33    65 1   
@<TRIPOS>SUBSTRUCTURE
     1 ZBA         1 TEMP              0 ****  ****    0 ROOT
