@<TRIPOS>MOLECULE
ZBA
   65    68     1     0     0
SMALL
No Charge or Current Charge


@<TRIPOS>ATOM
      1 O18         59.7240    10.1600   -22.2690 o          1 ZBA      -0.492000
      2 C44         58.5490    10.3030   -21.9590 c          1 ZBA       0.597100
      3 C45         57.3850     9.6190   -22.6870 c3         1 ZBA      -0.104200
      4 C46         57.1660     8.1550   -22.3100 c2         1 ZBA      -0.110400
      5 C48         57.8200     7.5020   -21.3340 c2         1 ZBA      -0.309000
      6 C47         56.0980     7.4900   -23.1590 c3         1 ZBA      -0.057900
      7 O17         58.1130    11.0570   -20.9030 os         1 ZBA      -0.448100
      8 C31         59.0380    11.7890   -20.0760 c6         1 ZBA       0.210500
      9 C30         59.6140    13.0480   -20.7930 c6         1 ZBA      -0.078400
     10 C32         58.3470    12.1420   -18.7610 c2         1 ZBA      -0.099400
     11 C39         58.0420    10.9550   -17.8660 c3         1 ZBA      -0.053900
     12 C33         58.0350    13.4070   -18.4260 c2         1 ZBA      -0.193200
     13 C34         58.3450    14.6350   -19.2680 c6         1 ZBA       0.198500
     14 O10         59.3990    15.3690   -18.5980 os         1 ZBA      -0.432000
     15 C29         58.6670    14.3140   -20.7780 c6         1 ZBA      -0.055000
     16 C38         57.2930    13.9440   -21.4690 c3         1 ZBA       0.166600
     17 O12         57.5050    13.4180   -22.7910 os         1 ZBA      -0.452100
     18 C40         56.4080    13.0650   -23.5260 c          1 ZBA       0.589100
     19 C41         56.8000    12.6020   -24.9220 c3         1 ZBA      -0.156100
     20 O13         55.2550    13.1080   -23.1220 o          1 ZBA      -0.482000
     21 C28         59.3390    15.6210   -21.4410 c5         1 ZBA      -0.023000
     22 C37         59.7100    15.4210   -22.9510 c3         1 ZBA      -0.077100
     23 C35         60.5730    16.0550   -20.6100 cx         1 ZBA       0.048000
     24 C25         60.0410    16.5050   -19.2640 c5         1 ZBA       0.198300
     25 C36         61.9080    15.3690   -20.6900 cx         1 ZBA       0.113600
     26 O11         61.7110    16.7160   -21.2070 op         1 ZBA      -0.438000
     27 C27         58.4350    16.9120   -21.1400 c5         1 ZBA       0.127300
     28 C26         59.0020    17.5480   -19.8060 c5         1 ZBA       0.129300
     29 O16         57.9880    17.9460   -18.8620 oh         1 ZBA      -0.700000
     30 O14         58.5900    17.9290   -22.1740 os         1 ZBA      -0.448100
     31 C42         57.7030    17.8570   -23.2230 c          1 ZBA       0.590100
     32 O15         56.7850    17.0550   -23.3240 o          1 ZBA      -0.483000
     33 C43         57.9970    18.9250   -24.2650 c3         1 ZBA      -0.154100
     34 H45         56.4650    10.1700   -22.4600 hc         1 ZBA       0.077700
     35 H45A        57.5930     9.6800   -23.7610 hc         1 ZBA       0.077700
     36 H48         57.6120     6.4540   -21.1130 ha         1 ZBA       0.167500
     37 H48A        58.5820     7.9750   -20.7150 ha         1 ZBA       0.167500
     38 H47         55.9430     6.4430   -22.8700 hc         1 ZBA       0.044033
     39 H47A        55.1350     8.0040   -23.0580 hc         1 ZBA       0.044033
     40 H47B        56.3740     7.4990   -24.2210 hc         1 ZBA       0.044033
     41 H31         59.8780    11.1170   -19.8420 h1         1 ZBA       0.071700
     42 H30         60.5420    13.2730   -20.2620 hc         1 ZBA       0.068200
     43 H30A        59.9110    12.7850   -21.8150 hc         1 ZBA       0.068200
     44 H39         57.5560    11.2640   -16.9330 hc         1 ZBA       0.048033
     45 H39A        57.3740    10.2440   -18.3650 hc         1 ZBA       0.048033
     46 H39B        58.9600    10.4190   -17.5970 hc         1 ZBA       0.048033
     47 H33         57.5440    13.6190   -17.4760 ha         1 ZBA       0.191000
     48 H34         57.4480    15.2700   -19.2360 h1         1 ZBA       0.064700
     49 H38         56.7630    13.2050   -20.8540 h1         1 ZBA       0.066700
     50 H38A        56.6430    14.8260   -21.5140 h1         1 ZBA       0.066700
     51 H41         55.9530    12.1970   -25.4850 hc         1 ZBA       0.069033
     52 H41A        57.2570    13.4480   -25.4460 hc         1 ZBA       0.069033
     53 H41B        57.6340    11.8960   -24.8510 hc         1 ZBA       0.069033
     54 H37         60.2640    16.2810   -23.3450 hc         1 ZBA       0.051033
     55 H37A        60.3460    14.5450   -23.1130 hc         1 ZBA       0.051033
     56 H37B        58.8290    15.3100   -23.5890 hc         1 ZBA       0.051033
     57 H25         60.7940    16.9590   -18.6060 h1         1 ZBA       0.106700
     58 H36         62.5250    15.3010   -19.7930 h1         1 ZBA       0.083700
     59 H36A        62.0880    14.6110   -21.4510 h1         1 ZBA       0.083700
     60 H27         57.3710    16.6820   -21.0090 h1         1 ZBA       0.083700
     61 H26         59.5800    18.4440   -20.0790 h1         1 ZBA       0.070700
     62 HO16        57.5460    18.7470   -19.2290 ho         1 ZBA       0.509000
     63 H43         57.3000    18.8950   -25.1090 hc         1 ZBA       0.072700
     64 H43A        58.0040    19.9050   -23.7740 hc         1 ZBA       0.072700
     65 H43B        59.0380    18.8210   -24.5900 hc         1 ZBA       0.072700
@<TRIPOS>BOND
     1     1     2 2   
     2     2     3 1   
     3     2     7 1   
     4     3     4 1   
     5     3    34 1   
     6     3    35 1   
     7     4     5 2   
     8     4     6 1   
     9     5    36 1   
    10     5    37 1   
    11     6    38 1   
    12     6    39 1   
    13     6    40 1   
    14     7     8 1   
    15     8     9 1   
    16     8    10 1   
    17     8    41 1   
    18     9    15 1   
    19     9    42 1   
    20     9    43 1   
    21    10    11 1   
    22    10    12 2   
    23    11    44 1   
    24    11    45 1   
    25    11    46 1   
    26    12    13 1   
    27    12    47 1   
    28    13    14 1   
    29    13    15 1   
    30    13    48 1   
    31    14    24 1   
    32    15    16 1   
    33    15    21 1   
    34    16    17 1   
    35    16    49 1   
    36    16    50 1   
    37    17    18 1   
    38    18    19 1   
    39    18    20 2   
    40    19    51 1   
    41    19    52 1   
    42    19    53 1   
    43    21    22 1   
    44    21    23 1   
    45    21    27 1   
    46    22    54 1   
    47    22    55 1   
    48    22    56 1   
    49    23    24 1   
    50    23    25 1   
    51    23    26 1   
    52    24    28 1   
    53    24    57 1   
    54    25    26 1   
    55    25    58 1   
    56    25    59 1   
    57    27    28 1   
    58    27    30 1   
    59    27    60 1   
    60    28    29 1   
    61    28    61 1   
    62    29    62 1   
    63    30    31 1   
    64    31    32 2   
    65    31    33 1   
    66    33    63 1   
    67    33    64 1   
    68    33    65 1   
@<TRIPOS>SUBSTRUCTURE
     1 ZBA         1 TEMP              0 ****  ****    0 ROOT
