@<TRIPOS>MOLECULE
ZBD
   69    71     1     0     0
SMALL
No Charge or Current Charge


@<TRIPOS>ATOM
      1 N1           0.3880     2.4400    -0.2860 nh         1 ZBD      -0.791300
      2 C7           1.7500     2.8580    -0.6430 c3         1 ZBD       0.290100
      3 C8           2.7990     1.7610    -0.4740 ca         1 ZBD      -0.086300
      4 C10          3.5390    -0.5370    -0.8320 ca         1 ZBD      -0.074500
      5 C13          4.0090     2.0250     0.1910 ca         1 ZBD      -0.096000
      6 C15          6.5900    -1.5890    -1.3730 c3         1 ZBD       0.303500
      7 C24         -0.0640     2.2630     1.0300 ca         1 ZBD       0.253000
      8 C26         -2.0910     2.2590     2.3820 ca         1 ZBD      -0.102000
      9 C28          0.0840     1.8170     3.4090 ca         1 ZBD      -0.106000
     10 O31         -1.0920     1.7440    -2.3040 o          1 ZBD      -0.535500
     11 S5          -0.8990     2.8400    -1.3520 s6         1 ZBD       1.318200
     12 O30         -0.7750     4.2420    -1.7540 o          1 ZBD      -0.535500
     13 C25         -1.4500     2.4040     1.1400 ca         1 ZBD       0.254000
     14 N6          -2.0560     2.7140    -0.0840 nh         1 ZBD      -0.784300
     15 C32         -3.4570     2.4230    -0.4160 c3         1 ZBD       0.235800
     16 C33         -3.8200     0.9240    -0.3410 c3         1 ZBD      -0.095400
     17 C34         -5.2990     0.6390    -0.7100 c3         1 ZBD      -0.155400
     18 C2          -5.7340    -0.8430    -0.6560 c          1 ZBD       0.604100
     19 N4          -7.0610    -1.1770    -1.0370 n          1 ZBD      -0.413800
     20 C39         -8.0400    -0.1210    -1.4030 c3         1 ZBD       0.087300
     21 C37         -7.5300    -2.5930    -1.0270 c3         1 ZBD       0.105700
     22 C40         -8.0040    -3.0540    -2.4240 c3         1 ZBD      -0.104100
     23 C35         -8.5940    -2.8670     0.0660 c3         1 ZBD      -0.093400
     24 C38         -8.1140    -2.5200     1.4900 c3         1 ZBD       0.164600
     25 O36         -9.1310    -2.8630     2.4370 oh         1 ZBD      -0.665000
     26 O3          -4.9470    -1.7080    -0.2930 o          1 ZBD      -0.604100
     27 C27         -1.3150     1.9620     3.5200 ca         1 ZBD      -0.106000
     28 C29          0.7180     1.9690     2.1590 ca         1 ZBD      -0.101000
     29 C12          4.9750     1.0170     0.3490 ca         1 ZBD      -0.074500
     30 C11          4.7560    -0.2930    -0.1480 ca         1 ZBD      -0.148300
     31 C9           2.5750     0.4730    -0.9890 ca         1 ZBD      -0.096000
     32 C14          5.8060    -1.4370    -0.0090 c3         1 ZBD       0.109300
     33 O17          5.0600    -2.6570     0.2370 oh         1 ZBD      -0.619000
     34 C16          6.8070    -1.2540     1.2100 c3         1 ZBD       0.303500
     35 F20          6.1360    -0.9490     2.3470 f          1 ZBD      -0.097667
     36 F19          7.5000    -2.3910     1.4600 f          1 ZBD      -0.097667
     37 F18          7.7200    -0.2780     0.9980 f          1 ZBD      -0.097667
     38 F21          7.5340    -2.5580    -1.3120 f          1 ZBD      -0.097667
     39 F22          5.7570    -1.9110    -2.3910 f          1 ZBD      -0.097667
     40 F23          7.2110    -0.4360    -1.7200 f          1 ZBD      -0.097667
     41 H1           1.7840     3.1940    -1.6880 h1         1 ZBD       0.068200
     42 H2           2.0300     3.7280    -0.0330 h1         1 ZBD       0.068200
     43 H3           3.3290    -1.5170    -1.2550 ha         1 ZBD       0.132000
     44 H4           4.2070     3.0180     0.5880 ha         1 ZBD       0.130000
     45 H5          -3.1670     2.3820     2.4660 ha         1 ZBD       0.125000
     46 H6           0.6760     1.5870     4.2920 ha         1 ZBD       0.120000
     47 H7          -4.1130     2.9830     0.2640 h1         1 ZBD       0.056700
     48 H8          -3.6800     2.7850    -1.4300 h1         1 ZBD       0.056700
     49 H9          -3.1650     0.3620    -1.0180 hc         1 ZBD       0.074700
     50 H10         -3.6250     0.5530     0.6720 hc         1 ZBD       0.074700
     51 H11         -5.9830     1.2150    -0.0760 hc         1 ZBD       0.057700
     52 H12         -5.5450     1.0300    -1.7040 hc         1 ZBD       0.057700
     53 H13         -7.7050     0.4010    -2.3080 h1         1 ZBD       0.038700
     54 H14         -9.0290    -0.5520    -1.5980 h1         1 ZBD       0.038700
     55 H15         -8.1390     0.5990    -0.5810 h1         1 ZBD       0.038700
     56 H16         -6.6790    -3.2430    -0.7850 h1         1 ZBD       0.088700
     57 H17         -8.2190    -4.1290    -2.4210 hc         1 ZBD       0.042700
     58 H18         -8.9140    -2.5290    -2.7360 hc         1 ZBD       0.042700
     59 H19         -7.2240    -2.8680    -3.1730 hc         1 ZBD       0.042700
     60 H20         -9.5080    -2.3030    -0.1530 hc         1 ZBD       0.056200
     61 H21         -8.8650    -3.9290     0.0360 hc         1 ZBD       0.056200
     62 H22         -7.1910    -3.0750     1.7060 h1         1 ZBD       0.022200
     63 H23         -7.8860    -1.4480     1.5500 h1         1 ZBD       0.022200
     64 H24         -8.7840    -2.6290     3.3270 ho         1 ZBD       0.443000
     65 H25         -1.7970     1.8460     4.4890 ha         1 ZBD       0.119000
     66 H26          1.7940     1.8530     2.0760 ha         1 ZBD       0.129000
     67 H27          5.8930     1.2850     0.8630 ha         1 ZBD       0.132000
     68 H28          1.6480     0.2510    -1.5130 ha         1 ZBD       0.130000
     69 H29          4.4190    -2.4630     0.9560 ho         1 ZBD       0.481000
@<TRIPOS>BOND
     1     1     2 1   
     2     1     7 1   
     3     1    11 1   
     4     2     3 1   
     5     2    41 1   
     6     2    42 1   
     7     3     5 ar  
     8     3    31 ar  
     9     4    30 ar  
    10     4    31 ar  
    11     4    43 1   
    12     5    29 ar  
    13     5    44 1   
    14     6    32 1   
    15     6    38 1   
    16     6    39 1   
    17     6    40 1   
    18     7    13 ar  
    19     7    28 ar  
    20     8    13 ar  
    21     8    27 ar  
    22     8    45 1   
    23     9    27 ar  
    24     9    28 ar  
    25     9    46 1   
    26    10    11 2   
    27    11    12 2   
    28    11    14 1   
    29    13    14 1   
    30    14    15 1   
    31    15    16 1   
    32    15    47 1   
    33    15    48 1   
    34    16    17 1   
    35    16    49 1   
    36    16    50 1   
    37    17    18 1   
    38    17    51 1   
    39    17    52 1   
    40    18    19 1   
    41    18    26 2   
    42    19    20 1   
    43    19    21 1   
    44    20    53 1   
    45    20    54 1   
    46    20    55 1   
    47    21    22 1   
    48    21    23 1   
    49    21    56 1   
    50    22    57 1   
    51    22    58 1   
    52    22    59 1   
    53    23    24 1   
    54    23    60 1   
    55    23    61 1   
    56    24    25 1   
    57    24    62 1   
    58    24    63 1   
    59    25    64 1   
    60    27    65 1   
    61    28    66 1   
    62    29    30 ar  
    63    29    67 1   
    64    30    32 1   
    65    31    68 1   
    66    32    33 1   
    67    32    34 1   
    68    33    69 1   
    69    34    35 1   
    70    34    36 1   
    71    34    37 1   
@<TRIPOS>SUBSTRUCTURE
     1 ZBD         1 TEMP              0 ****  ****    0 ROOT
