@<TRIPOS>MOLECULE
ZBD
   69    71     1     0     0
SMALL
abcg2


@<TRIPOS>ATOM
      1 N1           0.4040     2.7150    -0.1820 nh         1 ZBD      -0.791300
      2 C7           1.7520     3.0060    -0.6210 c3         1 ZBD       0.290100
      3 C8           2.6880     1.8380    -0.4520 ca         1 ZBD      -0.086300
      4 C10          3.1710    -0.5190    -0.5700 ca         1 ZBD      -0.074500
      5 C13          4.0020     2.0600    -0.0630 ca         1 ZBD      -0.096000
      6 C15          6.1780    -1.6450    -1.4100 c3         1 ZBD       0.303500
      7 C24          0.0150     2.5260     1.1390 ca         1 ZBD       0.253000
      8 C26         -1.9850     2.1940     2.4520 ca         1 ZBD      -0.102000
      9 C28          0.1960     2.2680     3.4970 ca         1 ZBD      -0.106000
     10 O31         -0.8430     1.5800    -2.1340 o          1 ZBD      -0.535500
     11 S5          -0.8720     2.7210    -1.2360 s6         1 ZBD       1.318200
     12 O30         -1.0150     4.0100    -1.8860 o          1 ZBD      -0.535500
     13 C25         -1.3720     2.3950     1.2320 ca         1 ZBD       0.254000
     14 N6          -1.9700     2.5210    -0.0170 nh         1 ZBD      -0.784300
     15 C32         -3.3630     2.2280    -0.3200 c3         1 ZBD       0.235800
     16 C33         -3.6840     0.7400    -0.2910 c3         1 ZBD      -0.095400
     17 C34         -5.1520     0.5190    -0.6180 c3         1 ZBD      -0.155400
     18 C2          -5.5480    -0.9450    -0.6110 c          1 ZBD       0.604100
     19 N4          -6.8270    -1.2170    -0.9540 n          1 ZBD      -0.413800
     20 C39         -7.7510    -0.1690    -1.3440 c3         1 ZBD       0.087300
     21 C37         -7.2920    -2.6030    -1.0320 c3         1 ZBD       0.105700
     22 C40         -7.6460    -2.9830    -2.4650 c3         1 ZBD      -0.104100
     23 C35         -8.4510    -2.8740    -0.0730 c3         1 ZBD      -0.093400
     24 C38         -8.1230    -2.5310     1.3670 c3         1 ZBD       0.164600
     25 O36         -9.2160    -2.9070     2.1790 oh         1 ZBD      -0.665000
     26 O3          -4.7400    -1.8140    -0.3040 o          1 ZBD      -0.604100
     27 C27         -1.1790     2.1310     3.5900 ca         1 ZBD      -0.106000
     28 C29          0.8140     2.4670     2.2620 ca         1 ZBD      -0.101000
     29 C12          4.8980     1.0100     0.0680 ca         1 ZBD      -0.074500
     30 C11          4.4880    -0.2990    -0.1720 ca         1 ZBD      -0.148300
     31 C9           2.2830     0.5350    -0.7060 ca         1 ZBD      -0.096000
     32 C14          5.4210    -1.5030    -0.0700 c3         1 ZBD       0.109300
     33 O17          4.7420    -2.7070     0.0720 oh         1 ZBD      -0.619000
     34 C16          6.4030    -1.3910     1.1290 c3         1 ZBD       0.303500
     35 F20          5.7160    -1.1050     2.2380 f          1 ZBD      -0.097667
     36 F19          7.0390    -2.5390     1.3430 f          1 ZBD      -0.097667
     37 F18          7.3380    -0.4510     0.9760 f          1 ZBD      -0.097667
     38 F21          7.0270    -2.6720    -1.4090 f          1 ZBD      -0.097667
     39 F22          5.3080    -1.8480    -2.3970 f          1 ZBD      -0.097667
     40 F23          6.8710    -0.5460    -1.7020 f          1 ZBD      -0.097667
     41 H1           1.7180     3.3020    -1.6720 h1         1 ZBD       0.068200
     42 H2           2.1220     3.8770    -0.0750 h1         1 ZBD       0.068200
     43 H3           2.8150    -1.5150    -0.7910 ha         1 ZBD       0.132000
     44 H4           4.3400     3.0670     0.1480 ha         1 ZBD       0.130000
     45 H5          -3.0590     2.0950     2.5320 ha         1 ZBD       0.125000
     46 H6           0.8070     2.2170     4.3880 ha         1 ZBD       0.120000
     47 H7          -3.9740     2.7790     0.3980 h1         1 ZBD       0.056700
     48 H8          -3.5950     2.6570    -1.2970 h1         1 ZBD       0.056700
     49 H9          -3.0510     0.2220    -1.0130 hc         1 ZBD       0.074700
     50 H10         -3.4510     0.3300     0.6930 hc         1 ZBD       0.074700
     51 H11         -5.7800     1.0630     0.0950 hc         1 ZBD       0.057700
     52 H12         -5.3840     0.9510    -1.5970 hc         1 ZBD       0.057700
     53 H13         -7.4750     0.3000    -2.2900 h1         1 ZBD       0.038700
     54 H14         -8.7450    -0.5900    -1.4690 h1         1 ZBD       0.038700
     55 H15         -7.8320     0.6090    -0.5840 h1         1 ZBD       0.038700
     56 H16         -6.4510    -3.2190    -0.7180 h1         1 ZBD       0.088700
     57 H17         -7.9250    -4.0350    -2.5150 hc         1 ZBD       0.042700
     58 H18         -8.4890    -2.4030    -2.8450 hc         1 ZBD       0.042700
     59 H19         -6.7970    -2.8280    -3.1300 hc         1 ZBD       0.042700
     60 H20         -9.3510    -2.3370    -0.3890 hc         1 ZBD       0.056200
     61 H21         -8.6900    -3.9380    -0.1440 hc         1 ZBD       0.056200
     62 H22         -7.2050    -3.0560     1.6630 h1         1 ZBD       0.022200
     63 H23         -7.9140    -1.4570     1.4560 h1         1 ZBD       0.022200
     64 H24         -9.0130    -2.6590     3.0850 ho         1 ZBD       0.443000
     65 H25         -1.6430     1.9720     4.5540 ha         1 ZBD       0.119000
     66 H26          1.8890     2.5650     2.1930 ha         1 ZBD       0.129000
     67 H27          5.9070     1.2510     0.3660 ha         1 ZBD       0.132000
     68 H28          1.2660     0.3240    -1.0140 ha         1 ZBD       0.130000
     69 H29          4.0400    -2.6200     0.7290 ho         1 ZBD       0.481000
@<TRIPOS>BOND
     1     1     2 1   
     2     1     7 1   
     3     1    11 1   
     4     2     3 1   
     5     2    41 1   
     6     2    42 1   
     7     3     5 ar  
     8     3    31 ar  
     9     4    30 ar  
    10     4    31 ar  
    11     4    43 1   
    12     5    29 ar  
    13     5    44 1   
    14     6    32 1   
    15     6    38 1   
    16     6    39 1   
    17     6    40 1   
    18     7    13 ar  
    19     7    28 ar  
    20     8    13 ar  
    21     8    27 ar  
    22     8    45 1   
    23     9    27 ar  
    24     9    28 ar  
    25     9    46 1   
    26    10    11 2   
    27    11    12 2   
    28    11    14 1   
    29    13    14 1   
    30    14    15 1   
    31    15    16 1   
    32    15    47 1   
    33    15    48 1   
    34    16    17 1   
    35    16    49 1   
    36    16    50 1   
    37    17    18 1   
    38    17    51 1   
    39    17    52 1   
    40    18    19 1   
    41    18    26 2   
    42    19    20 1   
    43    19    21 1   
    44    20    53 1   
    45    20    54 1   
    46    20    55 1   
    47    21    22 1   
    48    21    23 1   
    49    21    56 1   
    50    22    57 1   
    51    22    58 1   
    52    22    59 1   
    53    23    24 1   
    54    23    60 1   
    55    23    61 1   
    56    24    25 1   
    57    24    62 1   
    58    24    63 1   
    59    25    64 1   
    60    27    65 1   
    61    28    66 1   
    62    29    30 ar  
    63    29    67 1   
    64    30    32 1   
    65    31    68 1   
    66    32    33 1   
    67    32    34 1   
    68    33    69 1   
    69    34    35 1   
    70    34    36 1   
    71    34    37 1   
@<TRIPOS>SUBSTRUCTURE
     1 ZBD         1 TEMP              0 ****  ****    0 ROOT
