@<TRIPOS>MOLECULE
ZBF
   54    54     1     0     0
SMALL
abcg2


@<TRIPOS>ATOM
      1 O7          -7.0040    11.1890     4.3300 o          1 ZBF      -0.604100
      2 C           -7.7140    10.8480     3.3750 c          1 ZBF       0.603100
      3 N           -8.8420    10.1470     3.6320 n          1 ZBF      -0.127900
      4 C12         -9.8570     9.6780     2.7670 ca         1 ZBF      -0.003000
      5 C19         -9.5360     8.8470     1.6980 ca         1 ZBF      -0.104000
      6 C18        -10.5430     8.4140     0.8430 ca         1 ZBF      -0.103000
      7 C17        -11.8630     8.7730     1.0710 ca         1 ZBF      -0.100000
      8 C14        -12.1910     9.5850     2.1670 ca         1 ZBF       0.021000
      9 C15        -13.5470     9.9530     2.4120 cg         1 ZBF      -0.104000
     10 C16        -14.6920    10.2640     2.6140 c1         1 ZBF      -0.252000
     11 C13        -11.1770    10.0430     3.0130 ca         1 ZBF      -0.082000
     12 O           -9.1190     9.9380     4.9920 oh         1 ZBF      -0.468100
     13 C1          -7.3890    11.1890     1.9440 c3         1 ZBF      -0.137400
     14 C2          -6.7280    12.5620     1.8290 c3         1 ZBF      -0.069400
     15 C3          -6.3850    12.9080     0.3780 c3         1 ZBF       0.040700
     16 C9          -5.8900    14.3620     0.3110 c          1 ZBF       0.574100
     17 O6          -4.7170    14.6570     0.5550 o          1 ZBF      -0.638100
     18 N3          -6.8320    15.2650     0.0280 ns         1 ZBF      -0.469900
     19 C10         -6.6110    16.6950     0.0040 c3         1 ZBF      -0.042000
     20 C11         -7.9090    17.4470    -0.3600 c          1 ZBF       0.706000
     21 O5          -7.8190    18.6970    -0.3720 o          1 ZBF      -0.742500
     22 O4          -8.9250    16.7540    -0.6130 o          1 ZBF      -0.742500
     23 N1          -5.3950    11.9870    -0.1330 ns         1 ZBF      -0.504900
     24 C4          -5.0800    11.9440    -1.4400 c          1 ZBF       0.589100
     25 O3          -5.6750    12.6130    -2.2940 o          1 ZBF      -0.660100
     26 C5          -3.9270    11.0270    -1.8010 c3         1 ZBF      -0.146400
     27 C6          -2.5590    11.7170    -1.6720 c3         1 ZBF      -0.041400
     28 C7          -2.1540    12.1580    -0.2550 c3         1 ZBF       0.010500
     29 N2          -0.8320    12.7960    -0.3310 n8         1 ZBF      -0.993200
     30 C8          -2.2100    10.9530     0.7170 c          1 ZBF       0.685000
     31 O2          -1.1820    10.2500     0.8330 o          1 ZBF      -0.742500
     32 O1          -3.3120    10.7480     1.3100 o          1 ZBF      -0.742500
     33 H1          -8.5110     8.5420     1.5400 ha         1 ZBF       0.136000
     34 H2         -10.2950     7.7770     0.0040 ha         1 ZBF       0.117000
     35 H3         -12.6470     8.4240     0.4130 ha         1 ZBF       0.113000
     36 H4         -15.7060    10.5380     2.7950 ha         1 ZBF       0.250000
     37 H5         -11.4140    10.6800     3.8530 ha         1 ZBF       0.137000
     38 H6          -8.3730    10.4230     5.4120 ho         1 ZBF       0.480000
     39 H7          -8.2860    11.1560     1.3280 hc         1 ZBF       0.075700
     40 H8          -6.7160    10.4150     1.5660 hc         1 ZBF       0.075700
     41 H9          -5.8210    12.5980     2.4330 hc         1 ZBF       0.072700
     42 H10         -7.4060    13.3260     2.2150 hc         1 ZBF       0.072700
     43 H11         -7.2850    12.8240    -0.2340 h1         1 ZBF       0.056700
     44 H12         -7.7780    14.9890    -0.2000 hn         1 ZBF       0.336500
     45 H13         -5.8410    16.9560    -0.7270 h1         1 ZBF       0.034700
     46 H14         -6.2610    17.0490     0.9770 h1         1 ZBF       0.034700
     47 H16         -4.7300    11.5450     0.5190 hn         1 ZBF       0.389500
     48 H17         -4.0720    10.7220    -2.8370 hc         1 ZBF       0.050200
     49 H18         -3.9550    10.1330    -1.1770 hc         1 ZBF       0.050200
     50 H19         -2.5360    12.5990    -2.3160 hc         1 ZBF       0.032200
     51 H20         -1.7960    11.0290    -2.0480 hc         1 ZBF       0.032200
     52 H21         -2.8630    12.9080     0.0970 h1         1 ZBF       0.085700
     53 H22         -0.6340    13.2440     0.5590 hn         1 ZBF       0.379500
     54 H23         -0.1410    12.0540    -0.4100 hn         1 ZBF       0.379500
@<TRIPOS>BOND
     1     1     2 2   
     2     2     3 1   
     3     2    13 1   
     4     3     4 1   
     5     3    12 1   
     6     4     5 ar  
     7     4    11 ar  
     8     5     6 ar  
     9     5    33 1   
    10     6     7 ar  
    11     6    34 1   
    12     7     8 ar  
    13     7    35 1   
    14     8     9 1   
    15     8    11 ar  
    16     9    10 3   
    17    10    36 1   
    18    11    37 1   
    19    12    38 1   
    20    13    14 1   
    21    13    39 1   
    22    13    40 1   
    23    14    15 1   
    24    14    41 1   
    25    14    42 1   
    26    15    16 1   
    27    15    23 1   
    28    15    43 1   
    29    16    17 2   
    30    16    18 1   
    31    18    19 1   
    32    18    44 1   
    33    19    20 1   
    34    19    45 1   
    35    19    46 1   
    36    20    21 1   
    37    20    22 1   
    38    23    24 1   
    39    23    47 1   
    40    24    25 2   
    41    24    26 1   
    42    26    27 1   
    43    26    48 1   
    44    26    49 1   
    45    27    28 1   
    46    27    50 1   
    47    27    51 1   
    48    28    29 1   
    49    28    30 1   
    50    28    52 1   
    51    29    53 1   
    52    29    54 1   
    53    30    31 1   
    54    30    32 1   
@<TRIPOS>SUBSTRUCTURE
     1 ZBF         1 TEMP              0 ****  ****    0 ROOT
