@<TRIPOS>MOLECULE
ZBF
   54    54     1     0     0
SMALL
No Charge or Current Charge


@<TRIPOS>ATOM
      1 O7          -7.0300    10.2450     5.0030 o          1 ZBF      -0.604100
      2 C           -7.6200    10.1670     3.9290 c          1 ZBF       0.603100
      3 N           -8.9640     9.6830     3.8540 n          1 ZBF      -0.127900
      4 C12         -9.8130     9.7590     2.7020 ca         1 ZBF      -0.003000
      5 C19        -10.3140     8.5800     2.1200 ca         1 ZBF      -0.104000
      6 C18        -11.1150     8.6470     0.9650 ca         1 ZBF      -0.103000
      7 C17        -11.4150     9.8930     0.3880 ca         1 ZBF      -0.100000
      8 C14        -10.9270    11.0760     0.9740 ca         1 ZBF       0.021000
      9 C15        -11.2180    12.3510     0.3860 cg         1 ZBF      -0.104000
     10 C16        -11.4470    13.4380    -0.1060 c1         1 ZBF      -0.252000
     11 C13        -10.1400    11.0060     2.1370 ca         1 ZBF      -0.082000
     12 O           -9.5840     9.1700     5.0530 oh         1 ZBF      -0.468100
     13 C1          -6.8920    10.5230     2.6170 c3         1 ZBF      -0.137400
     14 C2          -6.7110    12.0560     2.4370 c3         1 ZBF      -0.069400
     15 C3          -6.3460    12.4740     0.9870 c3         1 ZBF       0.040700
     16 C9          -6.3290    14.0240     0.8170 c          1 ZBF       0.574100
     17 O6          -5.3060    14.6760     0.6420 o          1 ZBF      -0.638100
     18 N3          -7.5680    14.6310     0.8640 ns         1 ZBF      -0.469900
     19 C10         -7.7960    16.0890     0.7380 c3         1 ZBF      -0.042000
     20 C11         -9.3000    16.4580     0.8590 c          1 ZBF       0.706000
     21 O5          -9.8970    16.8000    -0.1510 o          1 ZBF      -0.742500
     22 O4          -9.8330    16.3570     1.9550 o          1 ZBF      -0.742500
     23 N1          -5.0550    11.8650     0.5850 ns         1 ZBF      -0.504900
     24 C4          -4.9200    10.7850    -0.2570 c          1 ZBF       0.589100
     25 O3          -5.8750    10.2810    -0.8310 o          1 ZBF      -0.660100
     26 C5          -3.4960    10.2400    -0.4100 c3         1 ZBF      -0.146400
     27 C6          -2.7520    10.8670    -1.6180 c3         1 ZBF      -0.041400
     28 C7          -2.5020    12.4000    -1.5150 c3         1 ZBF       0.010500
     29 N2          -1.8840    12.8980    -2.8010 n8         1 ZBF      -0.993200
     30 C8          -1.7350    12.7740    -0.1790 c          1 ZBF       0.685000
     31 O2          -0.5180    12.9110    -0.2200 o          1 ZBF      -0.742500
     32 O1          -2.3990    12.9940     0.8250 o          1 ZBF      -0.742500
     33 H1         -10.0730     7.6130     2.5560 ha         1 ZBF       0.136000
     34 H2         -11.4950     7.7330     0.5140 ha         1 ZBF       0.117000
     35 H3         -12.0260     9.9390    -0.5110 ha         1 ZBF       0.113000
     36 H4         -11.6410    14.4020    -0.5330 ha         1 ZBF       0.250000
     37 H5          -9.7870    11.9220     2.6000 ha         1 ZBF       0.137000
     38 H6          -9.9340     9.9680     5.5110 ho         1 ZBF       0.480000
     39 H7          -7.4490    10.1340     1.7590 hc         1 ZBF       0.075700
     40 H8          -5.8990    10.0590     2.6360 hc         1 ZBF       0.075700
     41 H9          -5.9370    12.4140     3.1270 hc         1 ZBF       0.072700
     42 H10         -7.6350    12.5660     2.7310 hc         1 ZBF       0.072700
     43 H11         -7.1350    12.1070     0.3180 h1         1 ZBF       0.056700
     44 H12         -8.3730    14.0280     0.9970 hn         1 ZBF       0.336500
     45 H13         -7.4210    16.4290    -0.2360 h1         1 ZBF       0.034700
     46 H14         -7.2430    16.6120     1.5290 h1         1 ZBF       0.034700
     47 H16         -4.1860    12.2960     0.9090 hn         1 ZBF       0.389500
     48 H17         -3.5480     9.1570    -0.5700 hc         1 ZBF       0.050200
     49 H18         -2.9160    10.4480     0.4950 hc         1 ZBF       0.050200
     50 H19         -3.3220    10.6520    -2.5310 hc         1 ZBF       0.032200
     51 H20         -1.7850    10.3590    -1.7280 hc         1 ZBF       0.032200
     52 H21         -3.4840    12.8880    -1.4310 h1         1 ZBF       0.085700
     53 H22         -1.7850    13.9200    -2.7480 hn         1 ZBF       0.379500
     54 H23         -0.9080    12.5780    -2.8290 hn         1 ZBF       0.379500
@<TRIPOS>BOND
     1     1     2 2   
     2     2     3 1   
     3     2    13 1   
     4     3     4 1   
     5     3    12 1   
     6     4     5 ar  
     7     4    11 ar  
     8     5     6 ar  
     9     5    33 1   
    10     6     7 ar  
    11     6    34 1   
    12     7     8 ar  
    13     7    35 1   
    14     8     9 1   
    15     8    11 ar  
    16     9    10 3   
    17    10    36 1   
    18    11    37 1   
    19    12    38 1   
    20    13    14 1   
    21    13    39 1   
    22    13    40 1   
    23    14    15 1   
    24    14    41 1   
    25    14    42 1   
    26    15    16 1   
    27    15    23 1   
    28    15    43 1   
    29    16    17 2   
    30    16    18 1   
    31    18    19 1   
    32    18    44 1   
    33    19    20 1   
    34    19    45 1   
    35    19    46 1   
    36    20    21 1   
    37    20    22 1   
    38    23    24 1   
    39    23    47 1   
    40    24    25 2   
    41    24    26 1   
    42    26    27 1   
    43    26    48 1   
    44    26    49 1   
    45    27    28 1   
    46    27    50 1   
    47    27    51 1   
    48    28    29 1   
    49    28    30 1   
    50    28    52 1   
    51    29    53 1   
    52    29    54 1   
    53    30    31 1   
    54    30    32 1   
@<TRIPOS>SUBSTRUCTURE
     1 ZBF         1 TEMP              0 ****  ****    0 ROOT
