@<TRIPOS>MOLECULE
ZBL
   61    65     1     0     0
SMALL
abcg2


@<TRIPOS>ATOM
      1 C4          61.4990    57.4180   -33.1150 c6         1 ZBL       0.173300
      2 C14         62.6510    59.9200   -37.2210 c3         1 ZBL      -0.032100
      3 C5          62.5460    56.9870   -34.1430 c6         1 ZBL      -0.049200
      4 C6          63.6030    58.0490   -34.2790 c2         1 ZBL      -0.017400
      5 C11         62.8890    56.6420   -39.1040 ca         1 ZBL       0.127000
      6 C7          64.1700    58.3820   -35.4450 ce         1 ZBL      -0.162000
      7 C8          63.7510    57.7450   -36.7170 ca         1 ZBL      -0.031800
      8 C9          64.0900    56.4400   -37.0520 ca         1 ZBL      -0.092000
      9 C10         63.6630    55.8770   -38.2470 ca         1 ZBL      -0.118000
     10 C12         62.5420    57.9480   -38.7920 ca         1 ZBL      -0.079000
     11 C13         62.9750    58.5050   -37.5960 ca         1 ZBL      -0.022300
     12 N1          61.3310    58.8620   -33.2100 n3         1 ZBL      -0.730600
     13 N2          66.3190    59.2600   -34.8630 nb         1 ZBL      -0.647000
     14 C3          60.0910    59.3290   -32.6150 c6         1 ZBL       0.433500
     15 C1          59.1230    58.3400   -35.6290 c          1 ZBL       0.726000
     16 C15         63.8740    60.8280   -37.3250 c3         1 ZBL      -0.026100
     17 C16         65.0820    60.5150   -36.4700 ca         1 ZBL      -0.060300
     18 C17         66.1510    61.3980   -36.5680 ca         1 ZBL      -0.131000
     19 C18         67.2970    61.2070   -35.8130 ca         1 ZBL       0.069100
     20 C19         67.3240    60.1110   -34.9560 ca         1 ZBL       0.244900
     21 C2          58.4800    59.0940   -34.4310 c6         1 ZBL       0.029300
     22 C20         65.2140    59.4310   -35.5890 ca         1 ZBL       0.403800
     23 C21         63.8030    58.7750   -32.9870 c6         1 ZBL      -0.049200
     24 C22         62.5020    59.5200   -32.6290 c6         1 ZBL       0.173300
     25 C23         59.9690    60.8660   -32.6870 c6         1 ZBL       0.109300
     26 C24         58.5930    61.2600   -33.2060 c6         1 ZBL       0.092300
     27 C25         58.4310    60.6170   -34.5720 c6         1 ZBL       0.157300
     28 O1          59.3470    59.0060   -36.6580 o          1 ZBL      -0.718500
     29 O2          59.2830    57.1160   -35.4760 o          1 ZBL      -0.718500
     30 O3          58.9730    58.6890   -33.1620 os         1 ZBL      -0.444000
     31 O4          68.3150    62.0750   -35.9400 oh         1 ZBL      -0.536100
     32 O5          60.2370    61.3890   -31.4060 oh         1 ZBL      -0.733000
     33 O6          58.5080    62.6650   -33.3630 oh         1 ZBL      -0.682000
     34 O7          57.2040    60.9580   -35.1760 oh         1 ZBL      -0.708000
     35 H1          60.5610    56.9240   -33.3410 h1         1 ZBL       0.037700
     36 H2          61.7910    57.1160   -32.0960 h1         1 ZBL       0.037700
     37 H11         61.8820    60.3170   -37.8840 hc         1 ZBL       0.083700
     38 H4          62.0560    56.7960   -35.0970 hc         1 ZBL       0.057200
     39 H5          63.0050    56.0440   -33.8270 hc         1 ZBL       0.057200
     40 H8          64.6910    55.8500   -36.3720 ha         1 ZBL       0.111000
     41 H9          63.9280    54.8590   -38.5000 ha         1 ZBL       0.114000
     42 H10         61.9330    58.5290   -39.4730 ha         1 ZBL       0.131000
     43 H14         60.0510    59.0520   -31.5460 h2         1 ZBL       0.040700
     44 H15         64.2010    60.8490   -38.3690 hc         1 ZBL       0.043700
     45 H12         63.5610    61.8500   -37.0960 hc         1 ZBL       0.043700
     46 H16         66.0880    62.2490   -37.2380 ha         1 ZBL       0.124000
     47 H17         68.1950    59.9160   -34.3350 h4         1 ZBL       0.005100
     48 H18         57.4330    58.7670   -34.4100 h1         1 ZBL       0.067700
     49 H19         64.0360    58.0460   -32.2050 hc         1 ZBL       0.057200
     50 H20         64.6270    59.4830   -33.0120 hc         1 ZBL       0.057200
     51 H21         62.5750    60.5400   -33.0080 h1         1 ZBL       0.037700
     52 H22         62.4250    59.5860   -31.5330 h1         1 ZBL       0.037700
     53 H23         60.6930    61.2510   -33.4200 h1         1 ZBL       0.059700
     54 H24         57.8100    60.9040   -32.5230 h1         1 ZBL       0.054700
     55 H25         59.2660    60.9560   -35.2020 h1         1 ZBL       0.069700
     56 H27         69.0480    61.8260   -35.3650 ho         1 ZBL       0.459000
     57 H28         60.3150    62.3460   -31.4840 ho         1 ZBL       0.496000
     58 H29         58.0740    63.0410   -32.5930 ho         1 ZBL       0.431000
     59 H30         57.1840    61.9170   -35.2640 ho         1 ZBL       0.490000
     60 CL1         62.3380    55.9530   -40.5990 cl         1 ZBL      -0.236000
     61 H3          62.2390    59.9500   -36.2100 hc         1 ZBL       0.083700
@<TRIPOS>BOND
     1     1     3 1   
     2     1    12 1   
     3     1    35 1   
     4     1    36 1   
     5     2    11 1   
     6     2    16 1   
     7     2    37 1   
     8     2    61 1   
     9     3     4 1   
    10     3    38 1   
    11     3    39 1   
    12     4     6 2   
    13     4    23 1   
    14     5     9 ar  
    15     5    10 ar  
    16     5    60 1   
    17     6     7 1   
    18     6    22 1   
    19     7     8 ar  
    20     7    11 ar  
    21     8     9 ar  
    22     8    40 1   
    23     9    41 1   
    24    10    11 ar  
    25    10    42 1   
    26    12    14 1   
    27    12    24 1   
    28    13    20 ar  
    29    13    22 ar  
    30    14    25 1   
    31    14    30 1   
    32    14    43 1   
    33    15    21 1   
    34    15    28 1   
    35    15    29 1   
    36    16    17 1   
    37    16    44 1   
    38    16    45 1   
    39    17    18 ar  
    40    17    22 ar  
    41    18    19 ar  
    42    18    46 1   
    43    19    20 ar  
    44    19    31 1   
    45    20    47 1   
    46    21    27 1   
    47    21    30 1   
    48    21    48 1   
    49    23    24 1   
    50    23    49 1   
    51    23    50 1   
    52    24    51 1   
    53    24    52 1   
    54    25    26 1   
    55    25    32 1   
    56    25    53 1   
    57    26    27 1   
    58    26    33 1   
    59    26    54 1   
    60    27    34 1   
    61    27    55 1   
    62    31    56 1   
    63    32    57 1   
    64    33    58 1   
    65    34    59 1   
@<TRIPOS>SUBSTRUCTURE
     1 ZBL         1 TEMP              0 ****  ****    0 ROOT
