@<TRIPOS>MOLECULE
ZBL
   61    65     1     0     0
SMALL
No Charge or Current Charge


@<TRIPOS>ATOM
      1 C4          61.3550    57.5690   -33.3780 c6         1 ZBL       0.173300
      2 C14         63.1640    59.6740   -37.9300 c3         1 ZBL      -0.032100
      3 C5          62.3980    57.2530   -34.4780 c6         1 ZBL      -0.049200
      4 C6          63.5460    58.2670   -34.5570 c2         1 ZBL      -0.017400
      5 C11         63.5770    56.0740   -39.2050 ca         1 ZBL       0.127000
      6 C7          64.3240    58.3880   -35.6700 ce         1 ZBL      -0.162000
      7 C8          64.0740    57.5720   -36.8840 ca         1 ZBL      -0.031800
      8 C9          64.3950    56.2030   -36.9180 ca         1 ZBL      -0.092000
      9 C10         64.1460    55.4530   -38.0800 ca         1 ZBL      -0.118000
     10 C12         63.2560    57.4410   -39.1710 ca         1 ZBL      -0.079000
     11 C13         63.5050    58.1940   -38.0060 ca         1 ZBL      -0.022300
     12 N1          61.1430    59.0360   -33.2880 n3         1 ZBL      -0.730600
     13 N2          66.4540    59.2000   -34.9150 nb         1 ZBL      -0.647000
     14 C3          59.9280    59.3990   -32.5010 c6         1 ZBL       0.433500
     15 C1          58.8720    59.4290   -35.5070 c          1 ZBL       0.726000
     16 C15         64.4240    60.5680   -37.9350 c3         1 ZBL      -0.026100
     17 C16         65.4980    60.3410   -36.8540 ca         1 ZBL      -0.060300
     18 C17         66.6270    61.1860   -36.9090 ca         1 ZBL      -0.131000
     19 C18         67.6540    61.0300   -35.9690 ca         1 ZBL       0.069100
     20 C19         67.5240    60.0200   -34.9910 ca         1 ZBL       0.244900
     21 C2          58.0750    59.3730   -34.1550 c6         1 ZBL       0.029300
     22 C20         65.4490    59.3590   -35.8160 ca         1 ZBL       0.403800
     23 C21         63.7040    59.1260   -33.2980 c6         1 ZBL      -0.049200
     24 C22         62.3650    59.7120   -32.7630 c6         1 ZBL       0.173300
     25 C23         59.6510    60.9600   -32.3930 c6         1 ZBL       0.109300
     26 C24         58.1230    61.2300   -32.3630 c6         1 ZBL       0.092300
     27 C25         57.4780    60.7530   -33.7090 c6         1 ZBL       0.157300
     28 O1          59.5100    60.4370   -35.7860 o          1 ZBL      -0.718500
     29 O2          58.9630    58.3900   -36.1530 o          1 ZBL      -0.718500
     30 O3          58.7670    58.7130   -33.0440 os         1 ZBL      -0.444000
     31 O4          68.7530    61.8490   -36.0220 oh         1 ZBL      -0.536100
     32 O5          60.2670    61.5810   -31.2410 oh         1 ZBL      -0.733000
     33 O6          57.8600    62.6300   -32.1140 oh         1 ZBL      -0.682000
     34 O7          56.0440    60.6750   -33.5650 oh         1 ZBL      -0.708000
     35 H1          60.4290    57.0300   -33.6240 h1         1 ZBL       0.037700
     36 H2          61.7080    57.1770   -32.4120 h1         1 ZBL       0.037700
     37 H11         62.5270    59.9620   -38.7750 hc         1 ZBL       0.083700
     38 H4          61.8710    57.2290   -35.4410 hc         1 ZBL       0.057200
     39 H5          62.7990    56.2440   -34.3200 hc         1 ZBL       0.057200
     40 H8          64.8370    55.7250   -36.0470 ha         1 ZBL       0.111000
     41 H9          64.3930    54.3950   -38.1100 ha         1 ZBL       0.114000
     42 H10         62.8160    57.9120   -40.0460 ha         1 ZBL       0.131000
     43 H14         60.0740    59.0180   -31.4780 h2         1 ZBL       0.040700
     44 H15         64.8970    60.4610   -38.9190 hc         1 ZBL       0.043700
     45 H12         64.0880    61.6110   -37.8830 hc         1 ZBL       0.043700
     46 H16         66.7080    61.9510   -37.6780 ha         1 ZBL       0.124000
     47 H17         68.3020    59.8620   -34.2460 h4         1 ZBL       0.005100
     48 H18         57.2200    58.7280   -34.4030 h1         1 ZBL       0.067700
     49 H19         64.1530    58.5020   -32.5140 hc         1 ZBL       0.057200
     50 H20         64.4000    59.9580   -33.4500 hc         1 ZBL       0.057200
     51 H21         62.3320    60.7780   -33.0300 h1         1 ZBL       0.037700
     52 H22         62.3910    59.6650   -31.6640 h1         1 ZBL       0.037700
     53 H23         60.0420    61.4310   -33.3070 h1         1 ZBL       0.059700
     54 H24         57.6980    60.6250   -31.5470 h1         1 ZBL       0.054700
     55 H25         57.7210    61.5000   -34.4800 h1         1 ZBL       0.069700
     56 H27         69.3720    61.6050   -35.2980 ho         1 ZBL       0.459000
     57 H28         59.7070    62.3800   -31.0870 ho         1 ZBL       0.496000
     58 H29         56.9390    62.6930   -31.7740 ho         1 ZBL       0.431000
     59 H30         55.6990    61.5930   -33.6520 ho         1 ZBL       0.490000
     60 Cl1         63.2660    55.1360   -40.6600 cl         1 ZBL      -0.236000
     61 H3          62.5700    59.8840   -37.0310 hc         1 ZBL       0.083700
@<TRIPOS>BOND
     1     1     3 1   
     2     1    12 1   
     3     1    35 1   
     4     1    36 1   
     5     2    11 1   
     6     2    16 1   
     7     2    37 1   
     8     2    61 1   
     9     3     4 1   
    10     3    38 1   
    11     3    39 1   
    12     4     6 2   
    13     4    23 1   
    14     5     9 ar  
    15     5    10 ar  
    16     5    60 1   
    17     6     7 1   
    18     6    22 1   
    19     7     8 ar  
    20     7    11 ar  
    21     8     9 ar  
    22     8    40 1   
    23     9    41 1   
    24    10    11 ar  
    25    10    42 1   
    26    12    14 1   
    27    12    24 1   
    28    13    20 ar  
    29    13    22 ar  
    30    14    25 1   
    31    14    30 1   
    32    14    43 1   
    33    15    21 1   
    34    15    28 1   
    35    15    29 1   
    36    16    17 1   
    37    16    44 1   
    38    16    45 1   
    39    17    18 ar  
    40    17    22 ar  
    41    18    19 ar  
    42    18    46 1   
    43    19    20 ar  
    44    19    31 1   
    45    20    47 1   
    46    21    27 1   
    47    21    30 1   
    48    21    48 1   
    49    23    24 1   
    50    23    49 1   
    51    23    50 1   
    52    24    51 1   
    53    24    52 1   
    54    25    26 1   
    55    25    32 1   
    56    25    53 1   
    57    26    27 1   
    58    26    33 1   
    59    26    54 1   
    60    27    34 1   
    61    27    55 1   
    62    31    56 1   
    63    32    57 1   
    64    33    58 1   
    65    34    59 1   
@<TRIPOS>SUBSTRUCTURE
     1 ZBL         1 TEMP              0 ****  ****    0 ROOT
