@<TRIPOS>MOLECULE
ZBR
   21    21     1     0     0
SMALL
No Charge or Current Charge


@<TRIPOS>ATOM
      1 C1          -1.3950     0.0200    -0.3930 ca         1 ZBR      -0.089300
      2 C2          -0.8070    -1.2010    -0.0120 ca         1 ZBR      -0.068000
      3 C3           0.3790    -1.2150     0.7470 ca         1 ZBR      -0.089300
      4 C4           0.9770     0.0020     1.1230 ca         1 ZBR      -0.068000
      5 C5           0.3950     1.2280     0.7510 ca         1 ZBR      -0.089300
      6 C6          -0.7910     1.2320    -0.0070 ca         1 ZBR      -0.068000
      7 C7          -2.6780     0.0300    -1.2120 c3         1 ZBR       0.142900
      8 C8           1.0150    -2.5380     1.1500 c3         1 ZBR       0.142900
      9 C9           1.0490     2.5410     1.1580 c3         1 ZBR       0.142900
     10 Br1          2.3410    -3.1380    -0.2110 br         1 ZBR      -0.268333
     11 Br2         -4.2820     0.0400    -0.0300 br         1 ZBR      -0.268333
     12 Br3          2.3830     3.1280    -0.1990 br         1 ZBR      -0.268333
     13 H2          -1.2710    -2.1400    -0.3070 ha         1 ZBR       0.122000
     14 H4           1.8980    -0.0050     1.7030 ha         1 ZBR       0.122000
     15 H6          -1.2430     2.1780    -0.2990 ha         1 ZBR       0.122000
     16 H7          -2.7380     0.9260    -1.8430 h1         1 ZBR       0.080700
     17 H7A         -2.7510    -0.8630    -1.8450 h1         1 ZBR       0.080700
     18 H8           1.5520    -2.4450     2.1020 h1         1 ZBR       0.080700
     19 H8A          0.2610    -3.3310     1.2350 h1         1 ZBR       0.080700
     20 H9           0.3050     3.3440     1.2460 h1         1 ZBR       0.080700
     21 H9A          1.5840     2.4380     2.1110 h1         1 ZBR       0.080700
@<TRIPOS>BOND
     1     1     2 ar  
     2     1     6 ar  
     3     1     7 1   
     4     2     3 ar  
     5     2    13 1   
     6     3     4 ar  
     7     3     8 1   
     8     4     5 ar  
     9     4    14 1   
    10     5     6 ar  
    11     5     9 1   
    12     6    15 1   
    13     7    11 1   
    14     7    16 1   
    15     7    17 1   
    16     8    10 1   
    17     8    18 1   
    18     8    19 1   
    19     9    12 1   
    20     9    20 1   
    21     9    21 1   
@<TRIPOS>SUBSTRUCTURE
     1 ZBR         1 TEMP              0 ****  ****    0 ROOT
