@<TRIPOS>MOLECULE
ZBR
   21    21     1     0     0
SMALL
bcc


@<TRIPOS>ATOM
      1 C1          -1.3760     0.0200    -0.3920 ca         1 ZBR      -0.089300
      2 C2          -0.7940    -1.1840    -0.0110 ca         1 ZBR      -0.086000
      3 C3           0.3710    -1.2020     0.7470 ca         1 ZBR      -0.089300
      4 C4           0.9560     0.0020     1.1240 ca         1 ZBR      -0.086000
      5 C5           0.3880     1.2140     0.7510 ca         1 ZBR      -0.089300
      6 C6          -0.7770     1.2150    -0.0070 ca         1 ZBR      -0.086000
      7 C7          -2.6270     0.0310    -1.1990 c3         1 ZBR       0.060300
      8 C8           0.9860    -2.4970     1.1480 c3         1 ZBR       0.060300
      9 C9           1.0210     2.5000     1.1550 c3         1 ZBR       0.060300
     10 BR1          2.3020    -3.0830    -0.2150 br         1 ZBR      -0.185733
     11 BR2         -4.2130     0.0410    -0.0110 br         1 ZBR      -0.185733
     12 BR3          2.3250     3.0830    -0.2190 br         1 ZBR      -0.185733
     13 H2          -1.2550    -2.1200    -0.3070 ha         1 ZBR       0.140000
     14 H4           1.8650    -0.0060     1.7160 ha         1 ZBR       0.140000
     15 H6          -1.2250     2.1580    -0.2990 ha         1 ZBR       0.140000
     16 H7          -2.7120     0.9200    -1.8200 h1         1 ZBR       0.080700
     17 H7A         -2.7260    -0.8560    -1.8220 h1         1 ZBR       0.080700
     18 H8           1.5380    -2.4250     2.0820 h1         1 ZBR       0.080700
     19 H8A          0.2550    -3.3000     1.2210 h1         1 ZBR       0.080700
     20 H9           0.2990     3.3090     1.2450 h1         1 ZBR       0.080700
     21 H9A          1.5840     2.4130     2.0830 h1         1 ZBR       0.080700
@<TRIPOS>BOND
     1     1     2 ar  
     2     1     6 ar  
     3     1     7 1   
     4     2     3 ar  
     5     2    13 1   
     6     3     4 ar  
     7     3     8 1   
     8     4     5 ar  
     9     4    14 1   
    10     5     6 ar  
    11     5     9 1   
    12     6    15 1   
    13     7    11 1   
    14     7    16 1   
    15     7    17 1   
    16     8    10 1   
    17     8    18 1   
    18     8    19 1   
    19     9    12 1   
    20     9    20 1   
    21     9    21 1   
@<TRIPOS>SUBSTRUCTURE
     1 ZBR         1 TEMP              0 ****  ****    0 ROOT
