@<TRIPOS>MOLECULE
ZBS
   62    66     1     0     0
SMALL
No Charge or Current Charge


@<TRIPOS>ATOM
      1 C01         -0.5370    -4.4850    75.8420 ca         1 ZBS      -0.105750
      2 C02         -0.2370    -4.6260    74.4770 ca         1 ZBS      -0.099500
      3 C03          0.1620    -5.8760    73.9730 ca         1 ZBS      -0.105750
      4 C04          0.2620    -6.9830    74.8340 ca         1 ZBS      -0.099750
      5 C05         -0.0380    -6.8470    76.2040 ca         1 ZBS      -0.100300
      6 C06         -0.4370    -5.5910    76.7030 ca         1 ZBS      -0.099750
      7 C07          0.0760    -8.0460    77.1420 c3         1 ZBS      -0.101100
      8 C08          1.4590    -8.0930    77.8020 c          1 ZBS       0.606600
      9 C09          3.6510    -9.2260    77.5500 cc         1 ZBS       0.515300
     10 C10          5.9200    -9.4510    78.2950 cc         1 ZBS       0.380700
     11 C11          7.2710    -9.4050    79.0080 c6         1 ZBS      -0.091000
     12 C12          8.4390    -9.9430    78.1210 c6         1 ZBS      -0.066400
     13 C13          8.7690    -8.9870    76.9430 c6         1 ZBS      -0.074400
     14 C14          9.0880    -7.5580    77.4490 c6         1 ZBS      -0.066400
     15 C15          7.9370    -7.0000    78.3320 c6         1 ZBS      -0.091000
     16 C16          7.6390    -7.9730    79.5110 c6         1 ZBS      -0.066400
     17 C17          8.2680    -5.6140    78.8460 cc         1 ZBS       0.380700
     18 C18          8.3570    -3.2930    79.4000 cc         1 ZBS       0.515300
     19 C19          7.3400    -1.0410    79.1890 c          1 ZBS       0.606600
     20 C20          7.5490     0.3960    79.6820 c3         1 ZBS      -0.101100
     21 C21          6.6280     0.7070    80.8580 ca         1 ZBS      -0.100300
     22 C22          5.3190     1.1750    80.6300 ca         1 ZBS      -0.099750
     23 C23          4.4670     1.4570    81.7120 ca         1 ZBS      -0.105750
     24 C24          4.9180     1.2720    83.0300 ca         1 ZBS      -0.099500
     25 C25          6.2220     0.8040    83.2640 ca         1 ZBS      -0.105750
     26 C26          7.0750     0.5230    82.1820 ca         1 ZBS      -0.099750
     27 N01          2.3410    -8.9740    77.2250 ns         1 ZBS      -0.468400
     28 N02          5.6230   -10.2610    77.2840 nd         1 ZBS      -0.308000
     29 N03          4.3200   -10.1200    76.8460 nd         1 ZBS      -0.395000
     30 N04          9.3530    -3.9720    79.9400 nd         1 ZBS      -0.395000
     31 N05          9.3030    -5.3160    79.6220 nd         1 ZBS      -0.308000
     32 N06          8.2760    -1.9420    79.6330 ns         1 ZBS      -0.468400
     33 O01          1.7430    -7.3810    78.7530 o          1 ZBS      -0.565600
     34 O02          6.3990    -1.3440    78.4720 o          1 ZBS      -0.565600
     35 S01          4.5690    -8.4830    78.8260 ss         1 ZBS      -0.199800
     36 S02          7.2630    -4.2530    78.4460 ss         1 ZBS      -0.199800
     37 H1          -0.8450    -3.5180    76.2330 ha         1 ZBS       0.118000
     38 H2          -0.3140    -3.7700    73.8100 ha         1 ZBS       0.117000
     39 H3           0.3950    -5.9870    72.9160 ha         1 ZBS       0.118000
     40 H4           0.5730    -7.9450    74.4320 ha         1 ZBS       0.116500
     41 H5          -0.6680    -5.4710    77.7590 ha         1 ZBS       0.116500
     42 H6          -0.6820    -7.9670    77.9310 hc         1 ZBS       0.079950
     43 H7          -0.0960    -8.9660    76.5710 hc         1 ZBS       0.079950
     44 H8           7.1980   -10.0570    79.8890 hc         1 ZBS       0.064700
     45 H9           8.2080   -10.9470    77.7400 hc         1 ZBS       0.051200
     46 H10          9.3370   -10.0640    78.7430 hc         1 ZBS       0.051200
     47 H11          9.6260    -9.3790    76.3790 hc         1 ZBS       0.050700
     48 H12          7.9290    -8.9500    76.2370 hc         1 ZBS       0.050700
     49 H13         10.0270    -7.5780    78.0200 hc         1 ZBS       0.051200
     50 H14          9.2610    -6.8930    76.5920 hc         1 ZBS       0.051200
     51 H15          7.0370    -6.9290    77.7060 hc         1 ZBS       0.064700
     52 H16          8.5260    -8.0430    80.1570 hc         1 ZBS       0.061200
     53 H17          6.8460    -7.5660    80.1540 hc         1 ZBS       0.061200
     54 H18          8.5900     0.5350    79.9960 hc         1 ZBS       0.079950
     55 H19          7.3300     1.0820    78.8550 hc         1 ZBS       0.079950
     56 H20          4.9590     1.3190    79.6130 ha         1 ZBS       0.116500
     57 H21          3.4570     1.8170    81.5290 ha         1 ZBS       0.118000
     58 H22          4.2580     1.4890    83.8670 ha         1 ZBS       0.117000
     59 H23          6.5720     0.6600    84.2840 ha         1 ZBS       0.118000
     60 H24          8.0820     0.1610    82.3770 ha         1 ZBS       0.116500
     61 H25          1.9740    -9.4970    76.4440 hn         1 ZBS       0.346500
     62 H26          8.9980    -1.5550    80.2220 hn         1 ZBS       0.346500
@<TRIPOS>BOND
     1     1     2 ar  
     2     1     6 ar  
     3     1    37 1   
     4     2     3 ar  
     5     2    38 1   
     6     3     4 ar  
     7     3    39 1   
     8     4     5 ar  
     9     4    40 1   
    10     5     6 ar  
    11     5     7 1   
    12     6    41 1   
    13     7     8 1   
    14     7    42 1   
    15     7    43 1   
    16     8    27 1   
    17     8    33 2   
    18     9    27 1   
    19     9    29 2   
    20     9    35 1   
    21    10    11 1   
    22    10    28 2   
    23    10    35 1   
    24    11    12 1   
    25    11    16 1   
    26    11    44 1   
    27    12    13 1   
    28    12    45 1   
    29    12    46 1   
    30    13    14 1   
    31    13    47 1   
    32    13    48 1   
    33    14    15 1   
    34    14    49 1   
    35    14    50 1   
    36    15    16 1   
    37    15    17 1   
    38    15    51 1   
    39    16    52 1   
    40    16    53 1   
    41    17    31 2   
    42    17    36 1   
    43    18    30 2   
    44    18    32 1   
    45    18    36 1   
    46    19    20 1   
    47    19    32 1   
    48    19    34 2   
    49    20    21 1   
    50    20    54 1   
    51    20    55 1   
    52    21    22 ar  
    53    21    26 ar  
    54    22    23 ar  
    55    22    56 1   
    56    23    24 ar  
    57    23    57 1   
    58    24    25 ar  
    59    24    58 1   
    60    25    26 ar  
    61    25    59 1   
    62    26    60 1   
    63    27    61 1   
    64    28    29 1   
    65    30    31 1   
    66    32    62 1   
@<TRIPOS>SUBSTRUCTURE
     1 ZBS         1 TEMP              0 ****  ****    0 ROOT
