@<TRIPOS>MOLECULE
ZBS
   62    66     1     0     0
SMALL
abcg2


@<TRIPOS>ATOM
      1 C01          0.2120    -4.7170    75.5930 ca         1 ZBS      -0.105750
      2 C02         -0.1670    -4.9970    74.2820 ca         1 ZBS      -0.099500
      3 C03         -0.4860    -6.3010    73.9220 ca         1 ZBS      -0.105750
      4 C04         -0.4270    -7.3210    74.8680 ca         1 ZBS      -0.099750
      5 C05         -0.0580    -7.0480    76.1830 ca         1 ZBS      -0.100300
      6 C06          0.2650    -5.7350    76.5360 ca         1 ZBS      -0.099750
      7 C07         -0.0070    -8.1550    77.2170 c3         1 ZBS      -0.101100
      8 C08          1.3810    -8.2870    77.8030 c          1 ZBS       0.606600
      9 C09          3.6120    -9.1230    77.2850 cc         1 ZBS       0.515300
     10 C10          5.8510    -9.2900    78.0970 cc         1 ZBS       0.380700
     11 C11          7.1430    -9.2790    78.8710 c6         1 ZBS      -0.091000
     12 C12          8.3460    -9.6950    78.0080 c6         1 ZBS      -0.066400
     13 C13          8.7450    -8.6180    76.9980 c6         1 ZBS      -0.074400
     14 C14          8.9910    -7.2710    77.6750 c6         1 ZBS      -0.066400
     15 C15          7.7660    -6.8410    78.5040 c6         1 ZBS      -0.091000
     16 C16          7.4110    -7.9180    79.5370 c6         1 ZBS      -0.066400
     17 C17          7.9980    -5.5110    79.1540 cc         1 ZBS       0.380700
     18 C18          8.2000    -3.2160    79.7610 cc         1 ZBS       0.515300
     19 C19          7.6250    -0.9350    79.1090 c          1 ZBS       0.606600
     20 C20          7.7050     0.4990    79.5920 c3         1 ZBS      -0.101100
     21 C21          6.8340     0.7120    80.8120 ca         1 ZBS      -0.100300
     22 C22          5.4470     0.7960    80.6770 ca         1 ZBS      -0.099750
     23 C23          4.6380     0.9560    81.7960 ca         1 ZBS      -0.105750
     24 C24          5.2060     1.0320    83.0650 ca         1 ZBS      -0.099500
     25 C25          6.5870     0.9500    83.2070 ca         1 ZBS      -0.105750
     26 C26          7.3950     0.7900    82.0860 ca         1 ZBS      -0.099750
     27 N01          2.2840    -8.9240    76.9920 ns         1 ZBS      -0.468400
     28 N02          5.6770    -9.8620    76.9480 nd         1 ZBS      -0.308000
     29 N03          4.3940    -9.7730    76.4710 nd         1 ZBS      -0.395000
     30 N04          8.7620    -4.0140    80.6240 nd         1 ZBS      -0.395000
     31 N05          8.6420    -5.3320    80.2660 nd         1 ZBS      -0.308000
     32 N06          8.2090    -1.8520    79.9420 ns         1 ZBS      -0.468400
     33 O01          1.7050    -7.8430    78.8940 o          1 ZBS      -0.565600
     34 O02          7.0570    -1.2720    78.0810 o          1 ZBS      -0.565600
     35 S01          4.3900    -8.5540    78.7240 ss         1 ZBS      -0.199800
     36 S02          7.4590    -4.0240    78.4190 ss         1 ZBS      -0.199800
     37 H1           0.4650    -3.7040    75.8810 ha         1 ZBS       0.118000
     38 H2          -0.2090    -4.2040    73.5460 ha         1 ZBS       0.117000
     39 H3          -0.7760    -6.5290    72.9040 ha         1 ZBS       0.118000
     40 H4          -0.6620    -8.3390    74.5810 ha         1 ZBS       0.116500
     41 H5           0.5580    -5.5120    77.5560 ha         1 ZBS       0.116500
     42 H6          -0.6890    -7.9490    78.0430 hc         1 ZBS       0.079950
     43 H7          -0.3000    -9.0990    76.7560 hc         1 ZBS       0.079950
     44 H8           7.0240   -10.0170    79.6710 hc         1 ZBS       0.064700
     45 H9           8.1400   -10.6380    77.5040 hc         1 ZBS       0.051200
     46 H10          9.1810    -9.8690    78.6930 hc         1 ZBS       0.051200
     47 H11          9.6460    -8.9310    76.4650 hc         1 ZBS       0.050700
     48 H12          7.9570    -8.5070    76.2490 hc         1 ZBS       0.050700
     49 H13          9.8540    -7.3380    78.3450 hc         1 ZBS       0.051200
     50 H14          9.2200    -6.5050    76.9310 hc         1 ZBS       0.051200
     51 H15          6.9200    -6.7240    77.8190 hc         1 ZBS       0.064700
     52 H16          8.2430    -8.0350    80.2330 hc         1 ZBS       0.061200
     53 H17          6.5500    -7.5990    80.1290 hc         1 ZBS       0.061200
     54 H18          8.7440     0.7380    79.8290 hc         1 ZBS       0.079950
     55 H19          7.3810     1.1280    78.7660 hc         1 ZBS       0.079950
     56 H20          5.0010     0.7380    79.6910 ha         1 ZBS       0.116500
     57 H21          3.5630     1.0220    81.6770 ha         1 ZBS       0.118000
     58 H22          4.5760     1.1610    83.9360 ha         1 ZBS       0.117000
     59 H23          7.0370     1.0130    84.1900 ha         1 ZBS       0.118000
     60 H24          8.4710     0.7300    82.2000 ha         1 ZBS       0.116500
     61 H25          1.9740    -9.2930    76.1020 hn         1 ZBS       0.346500
     62 H26          8.6710    -1.5320    80.7840 hn         1 ZBS       0.346500
@<TRIPOS>BOND
     1     1     2 ar  
     2     1     6 ar  
     3     1    37 1   
     4     2     3 ar  
     5     2    38 1   
     6     3     4 ar  
     7     3    39 1   
     8     4     5 ar  
     9     4    40 1   
    10     5     6 ar  
    11     5     7 1   
    12     6    41 1   
    13     7     8 1   
    14     7    42 1   
    15     7    43 1   
    16     8    27 1   
    17     8    33 2   
    18     9    27 1   
    19     9    29 2   
    20     9    35 1   
    21    10    11 1   
    22    10    28 2   
    23    10    35 1   
    24    11    12 1   
    25    11    16 1   
    26    11    44 1   
    27    12    13 1   
    28    12    45 1   
    29    12    46 1   
    30    13    14 1   
    31    13    47 1   
    32    13    48 1   
    33    14    15 1   
    34    14    49 1   
    35    14    50 1   
    36    15    16 1   
    37    15    17 1   
    38    15    51 1   
    39    16    52 1   
    40    16    53 1   
    41    17    31 2   
    42    17    36 1   
    43    18    30 2   
    44    18    32 1   
    45    18    36 1   
    46    19    20 1   
    47    19    32 1   
    48    19    34 2   
    49    20    21 1   
    50    20    54 1   
    51    20    55 1   
    52    21    22 ar  
    53    21    26 ar  
    54    22    23 ar  
    55    22    56 1   
    56    23    24 ar  
    57    23    57 1   
    58    24    25 ar  
    59    24    58 1   
    60    25    26 ar  
    61    25    59 1   
    62    26    60 1   
    63    27    61 1   
    64    28    29 1   
    65    30    31 1   
    66    32    62 1   
@<TRIPOS>SUBSTRUCTURE
     1 ZBS         1 TEMP              0 ****  ****    0 ROOT
