@<TRIPOS>MOLECULE
ZBT
   22    22     1     0     0
SMALL
No Charge or Current Charge


@<TRIPOS>ATOM
      1 S1           1.4180    -0.9490    -0.7090 ss         1 ZBT      -0.404200
      2 C2           0.2350    -0.0010     0.2220 c2         1 ZBT       0.486200
      3 N3           0.6380     1.0120     0.9150 n2         1 ZBT      -0.575900
      4 C4           2.1300     1.1100     0.8140 c5         1 ZBT       0.096800
      5 C5           2.5660     0.4720    -0.5310 c5         1 ZBT       0.030600
      6 C6          -1.2250    -0.4310     0.1490 c3         1 ZBT      -0.090000
      7 C7          -2.0980     0.6580    -0.5360 c3         1 ZBT      -0.067400
      8 C8          -3.5420     0.2170    -0.8570 c3         1 ZBT      -0.091100
      9 C9          -1.7600    -0.8470     1.5440 c3         1 ZBT      -0.088100
     10 H4           2.4510     2.1600     0.8590 h1         1 ZBT       0.074200
     11 H5           3.6160     0.1500    -0.5340 h1         1 ZBT       0.078200
     12 H6          -1.2740    -1.3250    -0.4840 hc         1 ZBT       0.066700
     13 H7          -2.1290     1.5560     0.0930 hc         1 ZBT       0.052700
     14 H7A         -1.6150     0.9530    -1.4760 hc         1 ZBT       0.052700
     15 H8          -4.0620     1.0020    -1.4190 hc         1 ZBT       0.032367
     16 H8A         -3.5460    -0.6960    -1.4650 hc         1 ZBT       0.032367
     17 H8B         -4.1120     0.0280     0.0600 hc         1 ZBT       0.032367
     18 H9          -2.7550    -1.2990     1.4690 hc         1 ZBT       0.042367
     19 H9A         -1.0930    -1.5870     2.0030 hc         1 ZBT       0.042367
     20 H9B         -1.8230     0.0190     2.2140 hc         1 ZBT       0.042367
     21 H12          2.5920     0.5920     1.6660 h1         1 ZBT       0.074200
     22 H13          2.4090     1.1710    -1.3640 h1         1 ZBT       0.078200
@<TRIPOS>BOND
     1     1     2 1   
     2     1     5 1   
     3     2     3 2   
     4     2     6 1   
     5     3     4 1   
     6     4     5 1   
     7     4    10 1   
     8     4    21 1   
     9     5    11 1   
    10     5    22 1   
    11     6     7 1   
    12     6     9 1   
    13     6    12 1   
    14     7     8 1   
    15     7    13 1   
    16     7    14 1   
    17     8    15 1   
    18     8    16 1   
    19     8    17 1   
    20     9    18 1   
    21     9    19 1   
    22     9    20 1   
@<TRIPOS>SUBSTRUCTURE
     1 ZBT         1 TEMP              0 ****  ****    0 ROOT
