@<TRIPOS>MOLECULE
ZBT
   22    22     1     0     0
SMALL
abcg2


@<TRIPOS>ATOM
      1 S1           1.4630    -1.1570     0.0830 ss         1 ZBT      -0.404200
      2 C2           0.1860     0.0930     0.0650 c2         1 ZBT       0.486200
      3 N3           0.5640     1.2900     0.1730 n2         1 ZBT      -0.575900
      4 C4           1.9920     1.4290     0.3670 c5         1 ZBT       0.096800
      5 C5           2.7170     0.1470    -0.0710 c5         1 ZBT       0.030600
      6 C6          -1.2390    -0.3630    -0.0510 c3         1 ZBT      -0.090000
      7 C7          -2.1890     0.8130    -0.2810 c3         1 ZBT      -0.067400
      8 C8          -3.6180     0.3810    -0.5850 c3         1 ZBT      -0.091100
      9 C9          -1.6150    -1.1880     1.1850 c3         1 ZBT      -0.088100
     10 H4           2.3670     2.2900    -0.1870 h1         1 ZBT       0.074200
     11 H5           3.5720    -0.0800     0.5610 h1         1 ZBT       0.078200
     12 H6          -1.2920    -1.0240    -0.9230 hc         1 ZBT       0.066700
     13 H7          -2.1730     1.4680     0.5940 hc         1 ZBT       0.052700
     14 H7A         -1.8120     1.4090    -1.1150 hc         1 ZBT       0.052700
     15 H8          -4.2280     1.2430    -0.8560 hc         1 ZBT       0.032367
     16 H8A         -3.6510    -0.3200    -1.4210 hc         1 ZBT       0.032367
     17 H8B         -4.0980    -0.0990     0.2680 hc         1 ZBT       0.032367
     18 H9          -2.6190    -1.5970     1.0850 hc         1 ZBT       0.042367
     19 H9A         -0.9390    -2.0300     1.3360 hc         1 ZBT       0.042367
     20 H9B         -1.5910    -0.5700     2.0840 hc         1 ZBT       0.042367
     21 H12          2.1710     1.6290     1.4280 h1         1 ZBT       0.074200
     22 H13          3.0520     0.2020    -1.1060 h1         1 ZBT       0.078200
@<TRIPOS>BOND
     1     1     2 1   
     2     1     5 1   
     3     2     3 2   
     4     2     6 1   
     5     3     4 1   
     6     4     5 1   
     7     4    10 1   
     8     4    21 1   
     9     5    11 1   
    10     5    22 1   
    11     6     7 1   
    12     6     9 1   
    13     6    12 1   
    14     7     8 1   
    15     7    13 1   
    16     7    14 1   
    17     8    15 1   
    18     8    16 1   
    19     8    17 1   
    20     9    18 1   
    21     9    19 1   
    22     9    20 1   
@<TRIPOS>SUBSTRUCTURE
     1 ZBT         1 TEMP              0 ****  ****    0 ROOT
