@<TRIPOS>MOLECULE
ZBX
   53    56     1     0     0
SMALL
abcg2


@<TRIPOS>ATOM
      1 C1          19.4070   -10.0770    13.6070 c3         1 ZBX      -0.106400
      2 C3          19.4950   -11.0280    11.3020 c6         1 ZBX      -0.101400
      3 C6          23.7020   -11.7310    12.1270 c3         1 ZBX       0.148900
      4 C7          20.1050   -13.6710    12.2570 ca         1 ZBX       0.001700
      5 C8          20.4140   -14.9310    12.7720 ca         1 ZBX      -0.114000
      6 C9          20.3670   -16.0480    11.9670 ca         1 ZBX      -0.081600
      7 C4          20.2310   -12.4870    13.1830 c6         1 ZBX      -0.113400
      8 C11         20.5610   -18.5630    11.6690 ca         1 ZBX      -0.090600
      9 C14         20.3650   -20.8610    10.1320 ca         1 ZBX      -0.204000
     10 C16         20.2430   -18.4420    10.3050 ca         1 ZBX      -0.171600
     11 C17         20.0180   -17.1050     9.7250 c          1 ZBX       0.621300
     12 C19         19.7360   -14.6600    10.0910 ca         1 ZBX       0.239100
     13 C21         19.2880   -12.2070    10.3500 c6         1 ZBX       0.243600
     14 C20         19.7320   -13.5270    10.9310 ca         1 ZBX      -0.084300
     15 C18         20.0430   -15.9340    10.6090 ca         1 ZBX      -0.266600
     16 C12         20.7810   -19.8020    12.2490 ca         1 ZBX      -0.114000
     17 C           19.1380   -10.2250    15.0990 c3         1 ZBX      -0.095100
     18 O           17.9430   -11.8650    12.8690 oh         1 ZBX      -0.632000
     19 C10         20.6690   -17.3700    12.5500 c          1 ZBX       0.587300
     20 C13         20.6810   -20.9450    11.4730 ca         1 ZBX      -0.050000
     21 C15         20.1420   -19.6190     9.5270 ca         1 ZBX       0.199100
     22 C2          19.2540   -11.3530    12.7700 c6         1 ZBX       0.207000
     23 C22         19.6780   -20.6770     7.4520 c3         1 ZBX       0.146900
     24 C5          21.6760   -12.0240    13.2870 c          1 ZBX       0.598100
     25 O1          22.1570   -11.5500    14.2850 o          1 ZBX      -0.484000
     26 O2          22.3500   -12.1910    12.1610 os         1 ZBX      -0.431100
     27 O3          20.9860   -17.4860    13.7160 o          1 ZBX      -0.509100
     28 O4          19.8300   -19.5080     8.2400 os         1 ZBX      -0.307100
     29 O6          19.4580   -14.4780     8.8100 oh         1 ZBX      -0.540100
     30 O7          17.9340   -12.3660     9.9770 oh         1 ZBX      -0.631000
     31 H1          20.4020    -9.6540    13.4530 hc         1 ZBX       0.053700
     32 H2          18.7080    -9.3450    13.1920 hc         1 ZBX       0.053700
     33 H3          20.5090   -10.6430    11.1850 hc         1 ZBX       0.056700
     34 H4          18.8310   -10.2150    10.9940 hc         1 ZBX       0.056700
     35 H5          24.0620   -11.9410    11.1240 h1         1 ZBX       0.050033
     36 H6          23.7610   -10.6590    12.3160 h1         1 ZBX       0.050033
     37 H7          24.3190   -12.2600    12.8530 h1         1 ZBX       0.050033
     38 H8          20.6810   -15.0300    13.8160 ha         1 ZBX       0.137000
     39 H9          19.9650   -12.8120    14.1940 hc         1 ZBX       0.088700
     40 H11         20.2930   -21.7740     9.5590 ha         1 ZBX       0.123000
     41 H12         19.9000   -12.0090     9.4600 h1         1 ZBX       0.043700
     42 H13         21.0250   -19.8750    13.2990 ha         1 ZBX       0.143000
     43 H14         19.2260    -9.2560    15.5900 hc         1 ZBX       0.039367
     44 H15         18.1300   -10.5890    15.3040 hc         1 ZBX       0.039367
     45 H16         19.8440   -10.8980    15.5840 hc         1 ZBX       0.039367
     46 H17         17.7700   -12.1100    13.7850 ho         1 ZBX       0.443000
     47 H18         20.8500   -21.9170    11.9170 ha         1 ZBX       0.120000
     48 H19         19.4130   -20.3340     6.4560 h1         1 ZBX       0.046700
     49 H20         20.6060   -21.2510     7.3930 h1         1 ZBX       0.046700
     50 H21         18.8810   -21.3200     7.8300 h1         1 ZBX       0.046700
     51 H23         19.5420   -15.3590     8.3680 ho         1 ZBX       0.521000
     52 H24         17.7240   -11.6770     9.3390 ho         1 ZBX       0.438000
     53 O5          19.8050   -16.9480     8.5230 o          1 ZBX      -0.553100
@<TRIPOS>BOND
     1     1    17 1   
     2     1    22 1   
     3     1    31 1   
     4     1    32 1   
     5     2    13 1   
     6     2    22 1   
     7     2    33 1   
     8     2    34 1   
     9     3    26 1   
    10     3    35 1   
    11     3    36 1   
    12     3    37 1   
    13     4     5 ar  
    14     4     7 1   
    15     4    14 ar  
    16     5     6 ar  
    17     5    38 1   
    18     6    15 ar  
    19     6    19 1   
    20     7    22 1   
    21     7    24 1   
    22     7    39 1   
    23     8    10 ar  
    24     8    16 ar  
    25     8    19 1   
    26     9    20 ar  
    27     9    21 ar  
    28     9    40 1   
    29    10    11 1   
    30    10    21 ar  
    31    11    15 1   
    32    11    53 2   
    33    12    14 ar  
    34    12    15 ar  
    35    12    29 1   
    36    13    14 1   
    37    13    30 1   
    38    13    41 1   
    39    16    20 ar  
    40    16    42 1   
    41    17    43 1   
    42    17    44 1   
    43    17    45 1   
    44    18    22 1   
    45    18    46 1   
    46    19    27 2   
    47    20    47 1   
    48    21    28 1   
    49    23    28 1   
    50    23    48 1   
    51    23    49 1   
    52    23    50 1   
    53    24    25 2   
    54    24    26 1   
    55    29    51 1   
    56    30    52 1   
@<TRIPOS>SUBSTRUCTURE
     1 ZBX         1 TEMP              0 ****  ****    0 ROOT
