@<TRIPOS>MOLECULE
ZBX
   53    56     1     0     0
SMALL
No Charge or Current Charge


@<TRIPOS>ATOM
      1 C1          19.7450    -9.8490    13.3170 c3         1 ZBX      -0.106400
      2 C3          19.5310   -11.0090    11.0520 c6         1 ZBX      -0.101400
      3 C6          23.6590   -11.6830    12.6630 c3         1 ZBX       0.148900
      4 C7          19.8500   -13.6730    12.1960 ca         1 ZBX       0.001700
      5 C8          20.1830   -14.9360    12.7140 ca         1 ZBX      -0.114000
      6 C9          20.1500   -16.1010    11.9200 ca         1 ZBX      -0.081600
      7 C4          19.9740   -12.4490    13.1300 c6         1 ZBX      -0.113400
      8 C11         20.5560   -18.6460    11.6590 ca         1 ZBX      -0.090600
      9 C14         20.6610   -20.9840    10.0890 ca         1 ZBX      -0.204000
     10 C16         20.1890   -18.5790    10.2860 ca         1 ZBX      -0.171600
     11 C17         19.7400   -17.2530     9.6920 c          1 ZBX       0.621300
     12 C19         19.4240   -14.7310    10.0340 ca         1 ZBX       0.239100
     13 C21         19.0080   -12.2210    10.2530 c6         1 ZBX       0.243600
     14 C20         19.4500   -13.5710    10.8440 ca         1 ZBX      -0.084300
     15 C18         19.7740   -16.0050    10.5580 ca         1 ZBX      -0.266600
     16 C12         20.9620   -19.8790    12.2190 ca         1 ZBX      -0.114000
     17 C           19.5540    -9.8120    14.8540 c3         1 ZBX      -0.095100
     18 O           17.8750   -11.2680    12.7970 oh         1 ZBX      -0.632000
     19 C10         20.5280   -17.4240    12.5450 c          1 ZBX       0.587300
     20 C13         21.0120   -21.0380    11.4410 ca         1 ZBX      -0.050000
     21 C15         20.2500   -19.7670     9.5000 ca         1 ZBX       0.199100
     22 C2          19.2870   -11.1540    12.5790 c6         1 ZBX       0.207000
     23 C22         19.9490   -20.8820     7.3010 c3         1 ZBX       0.146900
     24 C5          21.4700   -12.2880    13.4800 c          1 ZBX       0.598100
     25 O1          21.9510   -12.7960    14.4850 o          1 ZBX      -0.484000
     26 O2          22.2370   -11.7790    12.4640 os         1 ZBX      -0.431100
     27 O3          20.8050   -17.5020    13.7390 o          1 ZBX      -0.509100
     28 O4          19.9130   -19.7270     8.1580 os         1 ZBX      -0.307100
     29 O6          19.0600   -14.6110     8.7240 oh         1 ZBX      -0.540100
     30 O7          17.5810   -12.1590    10.2330 oh         1 ZBX      -0.631000
     31 H1          20.8010    -9.6430    13.1010 hc         1 ZBX       0.053700
     32 H2          19.2010    -8.9920    12.8980 hc         1 ZBX       0.053700
     33 H3          20.5980   -10.8790    10.8410 hc         1 ZBX       0.056700
     34 H4          19.0510   -10.0930    10.6790 hc         1 ZBX       0.056700
     35 H5          24.1390   -11.2490    11.7780 h1         1 ZBX       0.050033
     36 H6          23.8900   -11.0440    13.5250 h1         1 ZBX       0.050033
     37 H7          24.0980   -12.6740    12.8360 h1         1 ZBX       0.050033
     38 H8          20.4810   -15.0100    13.7580 ha         1 ZBX       0.137000
     39 H9          19.4900   -12.7290    14.0750 hc         1 ZBX       0.088700
     40 H11         20.7160   -21.9030     9.5150 ha         1 ZBX       0.123000
     41 H12         19.3940   -12.1340     9.2270 h1         1 ZBX       0.043700
     42 H13         21.2440   -19.9440    13.2680 ha         1 ZBX       0.143000
     43 H14         19.9120    -8.8550    15.2530 hc         1 ZBX       0.039367
     44 H15         18.4980    -9.9120    15.1300 hc         1 ZBX       0.039367
     45 H16         20.1190   -10.6100    15.3500 hc         1 ZBX       0.039367
     46 H17         17.7140   -11.0370    13.7370 ho         1 ZBX       0.443000
     47 H18         21.3280   -21.9790    11.8870 ha         1 ZBX       0.120000
     48 H19         19.6400   -20.6090     6.2840 h1         1 ZBX       0.046700
     49 H20         20.9630   -21.2970     7.2460 h1         1 ZBX       0.046700
     50 H21         19.2660   -21.6600     7.6640 h1         1 ZBX       0.046700
     51 H23         19.0680   -15.5300     8.3520 ho         1 ZBX       0.521000
     52 H24         17.3590   -11.8880    11.1590 ho         1 ZBX       0.438000
     53 O5          19.3360   -17.1600     8.5380 o          1 ZBX      -0.553100
@<TRIPOS>BOND
     1     1    17 1   
     2     1    22 1   
     3     1    31 1   
     4     1    32 1   
     5     2    13 1   
     6     2    22 1   
     7     2    33 1   
     8     2    34 1   
     9     3    26 1   
    10     3    35 1   
    11     3    36 1   
    12     3    37 1   
    13     4     5 ar  
    14     4     7 1   
    15     4    14 ar  
    16     5     6 ar  
    17     5    38 1   
    18     6    15 ar  
    19     6    19 1   
    20     7    22 1   
    21     7    24 1   
    22     7    39 1   
    23     8    10 ar  
    24     8    16 ar  
    25     8    19 1   
    26     9    20 ar  
    27     9    21 ar  
    28     9    40 1   
    29    10    11 1   
    30    10    21 ar  
    31    11    15 1   
    32    11    53 2   
    33    12    14 ar  
    34    12    15 ar  
    35    12    29 1   
    36    13    14 1   
    37    13    30 1   
    38    13    41 1   
    39    16    20 ar  
    40    16    42 1   
    41    17    43 1   
    42    17    44 1   
    43    17    45 1   
    44    18    22 1   
    45    18    46 1   
    46    19    27 2   
    47    20    47 1   
    48    21    28 1   
    49    23    28 1   
    50    23    48 1   
    51    23    49 1   
    52    23    50 1   
    53    24    25 2   
    54    24    26 1   
    55    29    51 1   
    56    30    52 1   
@<TRIPOS>SUBSTRUCTURE
     1 ZBX         1 TEMP              0 ****  ****    0 ROOT
