@<TRIPOS>MOLECULE
ZBZ
   25    25     1     0     0
SMALL
bcc


@<TRIPOS>ATOM
      1 C           10.1870    72.5220    11.6620 c          1 ZBZ       0.937600
      2 N           12.6070    73.0260    11.5810 n8         1 ZBZ      -0.887800
      3 O            9.3330    71.6650    11.3640 o          1 ZBZ      -0.828800
      4 SG          11.8800    69.8910    11.5670 ss         1 ZBZ      -0.214700
      5 CA          11.4880    72.5180    10.8130 c3         1 ZBZ       0.019500
      6 CB          11.7950    71.1380    10.2550 c3         1 ZBZ       0.051700
      7 CAE         14.7830    66.6080    14.5630 ca         1 ZBZ      -0.122000
      8 CAF         13.4310    66.8210    14.3290 ca         1 ZBZ      -0.152000
      9 CAG         15.7300    67.3300    13.8480 ca         1 ZBZ      -0.152000
     10 CAH         13.0250    67.7530    13.3870 ca         1 ZBZ      -0.081500
     11 CAI         15.3260    68.2590    12.9020 ca         1 ZBZ      -0.081500
     12 CAM         13.6000    69.4990    11.6380 c          1 ZBZ       0.582300
     13 CAN         13.9690    68.4820    12.6650 ca         1 ZBZ      -0.142600
     14 OXT         10.1010    73.4040    12.5370 o          1 ZBZ      -0.828800
     15 H           13.3190    73.3940    10.9640 hn         1 ZBZ       0.332800
     16 H2          12.2750    73.7970    12.1450 hn         1 ZBZ       0.332800
     17 HA          11.2670    73.1450     9.9300 h1         1 ZBZ       0.002700
     18 HB          12.7390    71.1270     9.7100 h1         1 ZBZ       0.061200
     19 HBA         11.0120    70.8140     9.5730 h1         1 ZBZ       0.061200
     20 HAG         16.7850    67.1690    14.0270 ha         1 ZBZ       0.123000
     21 HAH         11.9650    67.8950    13.2200 ha         1 ZBZ       0.151500
     22 HAI         16.0700    68.8170    12.3510 ha         1 ZBZ       0.151500
     23 HAE         15.0970    65.8820    15.3010 ha         1 ZBZ       0.117000
     24 OAC         14.4310    70.0130    10.9260 o          1 ZBZ      -0.555100
     25 HAF         12.6890    66.2590    14.8810 ha         1 ZBZ       0.123000
@<TRIPOS>BOND
     1     1     3 1   
     2     1     5 1   
     3     1    14 1   
     4     2     5 1   
     5     2    15 1   
     6     2    16 1   
     7     4     6 1   
     8     4    12 1   
     9     5     6 1   
    10     5    17 1   
    11     6    18 1   
    12     6    19 1   
    13     7     8 ar  
    14     7     9 ar  
    15     7    23 1   
    16     8    10 ar  
    17     8    25 1   
    18     9    11 ar  
    19     9    20 1   
    20    10    13 ar  
    21    10    21 1   
    22    11    13 ar  
    23    11    22 1   
    24    12    13 1   
    25    12    24 2   
@<TRIPOS>SUBSTRUCTURE
     1 ZBZ         1 TEMP              0 ****  ****    0 ROOT
