@<TRIPOS>MOLECULE
ZBZ
   25    25     1     0     0
SMALL
No Charge or Current Charge


@<TRIPOS>ATOM
      1 C           10.0070    72.6100    11.5030 c          1 ZBZ       0.937600
      2 N           12.6620    72.8170    11.7650 n8         1 ZBZ      -0.887800
      3 O            9.0600    72.7170    10.7300 o          1 ZBZ      -0.828800
      4 SG          11.7260    69.6960    11.3880 ss         1 ZBZ      -0.214700
      5 CA          11.4720    72.4850    10.8860 c3         1 ZBZ       0.019500
      6 CB          11.6410    71.1080    10.1870 c3         1 ZBZ       0.051700
      7 CAE         14.8920    66.6320    14.5990 ca         1 ZBZ      -0.122000
      8 CAF         13.5170    66.8240    14.4000 ca         1 ZBZ      -0.152000
      9 CAG         15.8150    67.3760    13.8490 ca         1 ZBZ      -0.152000
     10 CAH         13.0600    67.7580    13.4530 ca         1 ZBZ      -0.081500
     11 CAI         15.3640    68.3110    12.9010 ca         1 ZBZ      -0.081500
     12 CAM         13.5290    69.5350    11.6530 c          1 ZBZ       0.582300
     13 CAN         13.9800    68.5170    12.6870 ca         1 ZBZ      -0.142600
     14 OXT          9.8650    72.6960    12.7210 o          1 ZBZ      -0.828800
     15 H           13.5270    72.7250    11.2230 hn         1 ZBZ       0.332800
     16 H2          12.6210    73.8040    12.0390 hn         1 ZBZ       0.332800
     17 HA          11.5070    73.2330    10.0820 h1         1 ZBZ       0.002700
     18 HB          12.5310    71.1100     9.5460 h1         1 ZBZ       0.061200
     19 HBA         10.7750    70.9400     9.5330 h1         1 ZBZ       0.061200
     20 HAG         16.8820    67.2300    14.0020 ha         1 ZBZ       0.123000
     21 HAH         11.9860    67.8770    13.3310 ha         1 ZBZ       0.151500
     22 HAI         16.0980    68.8770    12.3300 ha         1 ZBZ       0.151500
     23 HAE         15.2420    65.9080    15.3340 ha         1 ZBZ       0.117000
     24 OAC         14.3440    70.1940    11.0140 o          1 ZBZ      -0.555100
     25 HAF         12.8000    66.2480    14.9820 ha         1 ZBZ       0.123000
@<TRIPOS>BOND
     1     1     3 1   
     2     1     5 1   
     3     1    14 1   
     4     2     5 1   
     5     2    15 1   
     6     2    16 1   
     7     4     6 1   
     8     4    12 1   
     9     5     6 1   
    10     5    17 1   
    11     6    18 1   
    12     6    19 1   
    13     7     8 ar  
    14     7     9 ar  
    15     7    23 1   
    16     8    10 ar  
    17     8    25 1   
    18     9    11 ar  
    19     9    20 1   
    20    10    13 ar  
    21    10    21 1   
    22    11    13 ar  
    23    11    22 1   
    24    12    13 1   
    25    12    24 2   
@<TRIPOS>SUBSTRUCTURE
     1 ZBZ         1 TEMP              0 ****  ****    0 ROOT
