@<TRIPOS>MOLECULE
ZC0
   44    47     1     0     0
SMALL
abcg2


@<TRIPOS>ATOM
      1 C01        204.9450   181.7150   169.2540 c6         1 ZC0      -0.195400
      2 C02        205.6790   181.9660   167.9470 c6         1 ZC0       0.230800
      3 C04        203.5380   182.5680   166.9910 c2         1 ZC0       0.104000
      4 C05        203.0560   182.9660   168.2030 ce         1 ZC0      -0.422200
      5 C06        203.7330   182.6170   169.4230 c          1 ZC0       0.583300
      6 C08        205.2500   181.7460   165.5200 ca         1 ZC0       0.185000
      7 C09        205.6860   180.4880   165.1070 ca         1 ZC0       0.203000
      8 C10        206.1950   180.2360   163.8540 ca         1 ZC0      -0.165000
      9 C11        206.2980   181.2740   162.9240 ca         1 ZC0       0.029000
     10 C12        205.8940   182.5480   163.3220 ca         1 ZC0       0.090000
     11 C13        205.3800   182.7700   164.5870 ca         1 ZC0       0.166000
     12 C17        206.1780   181.7250   160.4350 c5         1 ZC0       0.075000
     13 C18        206.4000   180.6570   159.3670 c5         1 ZC0       0.125300
     14 C20        207.5710   180.0290   161.2360 c          1 ZC0       0.703100
     15 C22        205.2310   179.6990   159.1290 c3         1 ZC0       0.225800
     16 C24        204.0160   179.2150   161.2520 cc         1 ZC0       0.540900
     17 C27        202.7940   179.1540   163.0680 cd         1 ZC0       0.213900
     18 C28        203.6360   178.3810   162.3540 cc         1 ZC0      -0.288000
     19 F14        205.0210   184.0180   164.9190 f          1 ZC0      -0.146000
     20 F15        206.0110   183.6010   162.4920 f          1 ZC0      -0.155000
     21 F29        205.5660   179.4620   165.9720 f          1 ZC0      -0.160000
     22 N03        204.7380   181.9670   166.8140 nh         1 ZC0      -0.689200
     23 N16        206.7310   181.0500   161.6160 n          1 ZC0      -0.255400
     24 N23        204.8880   178.8740   160.2700 nu         1 ZC0      -0.950100
     25 N25        203.4290   180.3960   161.3150 nd         1 ZC0      -0.468300
     26 O07        203.3330   182.9390   170.5450 o          1 ZC0      -0.547100
     27 O19        207.5320   179.9050   159.8900 os         1 ZC0      -0.414100
     28 O26        202.6390   180.3570   162.4920 os         1 ZC0      -0.094700
     29 H011       204.5810   180.6820   169.2880 hc         1 ZC0       0.078700
     30 H012       205.6240   181.8550   170.0940 hc         1 ZC0       0.078700
     31 H022       206.4350   181.2040   167.7730 h1         1 ZC0       0.055200
     32 H021       206.1770   182.9430   167.9710 h1         1 ZC0       0.055200
     33 H041       202.9580   182.7140   166.0890 h4         1 ZC0       0.196000
     34 H2         202.0990   183.4660   168.2540 ha         1 ZC0       0.210000
     35 H101       206.4730   179.2300   163.5870 ha         1 ZC0       0.164000
     36 H171       206.7340   182.6350   160.2150 h1         1 ZC0       0.090700
     37 H172       205.1270   181.9540   160.5790 h1         1 ZC0       0.090700
     38 H181       206.7090   181.0920   158.4190 h1         1 ZC0       0.097700
     39 H222       204.3670   180.2860   158.8100 h1         1 ZC0       0.072200
     40 H221       205.5010   179.0320   158.3110 h1         1 ZC0       0.072200
     41 H271       202.2470   178.9920   163.9830 h4         1 ZC0       0.058100
     42 H281       203.9640   177.3770   162.5610 ha         1 ZC0       0.156000
     43 H231       205.2590   177.9410   160.3000 hn         1 ZC0       0.508000
     44 O21        208.2760   179.3410   161.9370 o          1 ZC0      -0.509000
@<TRIPOS>BOND
     1     1     2 1   
     2     1     5 1   
     3     1    29 1   
     4     1    30 1   
     5     2    22 1   
     6     2    31 1   
     7     2    32 1   
     8     3     4 2   
     9     3    22 1   
    10     3    33 1   
    11     4     5 1   
    12     4    34 1   
    13     5    26 2   
    14     6     7 ar  
    15     6    11 ar  
    16     6    22 1   
    17     7     8 ar  
    18     7    21 1   
    19     8     9 ar  
    20     8    35 1   
    21     9    10 ar  
    22     9    23 1   
    23    10    11 ar  
    24    10    20 1   
    25    11    19 1   
    26    12    13 1   
    27    12    23 1   
    28    12    36 1   
    29    12    37 1   
    30    13    15 1   
    31    13    27 1   
    32    13    38 1   
    33    14    23 1   
    34    14    27 1   
    35    14    44 2   
    36    15    24 1   
    37    15    39 1   
    38    15    40 1   
    39    16    18 1   
    40    16    24 1   
    41    16    25 2   
    42    17    18 2   
    43    17    28 1   
    44    17    41 1   
    45    18    42 1   
    46    24    43 1   
    47    25    28 1   
@<TRIPOS>SUBSTRUCTURE
     1 ZC0         1 TEMP              0 ****  ****    0 ROOT
