@<TRIPOS>MOLECULE
ZC0
   44    47     1     0     0
SMALL
No Charge or Current Charge


@<TRIPOS>ATOM
      1 C01        205.0170   181.6600   169.3500 c6         1 ZC0      -0.195400
      2 C02        205.7690   182.0880   168.0820 c6         1 ZC0       0.230800
      3 C04        203.6030   182.9590   167.2230 c2         1 ZC0       0.104000
      4 C05        203.1490   183.1360   168.4760 ce         1 ZC0      -0.422200
      5 C06        203.9030   182.6540   169.6530 c          1 ZC0       0.583300
      6 C08        205.2090   181.9750   165.6420 ca         1 ZC0       0.185000
      7 C09        205.4290   180.6340   165.2470 ca         1 ZC0       0.203000
      8 C10        205.8320   180.3190   163.9410 ca         1 ZC0      -0.165000
      9 C11        205.9770   181.3200   162.9580 ca         1 ZC0       0.029000
     10 C12        205.8360   182.6690   163.3690 ca         1 ZC0       0.090000
     11 C13        205.4350   182.9890   164.6810 ca         1 ZC0       0.166000
     12 C17        206.1130   181.6850   160.4260 c5         1 ZC0       0.075000
     13 C18        206.5210   180.6190   159.3700 c5         1 ZC0       0.125300
     14 C20        207.4100   179.9470   161.3800 c          1 ZC0       0.703100
     15 C22        205.3450   179.6950   158.9110 c3         1 ZC0       0.225800
     16 C24        203.9450   178.9780   160.9140 cc         1 ZC0       0.540900
     17 C27        202.8070   178.6640   162.7310 cd         1 ZC0       0.213900
     18 C28        203.7860   178.1000   161.9800 cc         1 ZC0      -0.288000
     19 F14        205.2910   184.2940   165.0250 f          1 ZC0      -0.146000
     20 F15        206.0880   183.6820   162.5060 f          1 ZC0      -0.155000
     21 F29        205.2490   179.6200   166.1280 f          1 ZC0      -0.160000
     22 N03        204.8000   182.2920   166.9740 nh         1 ZC0      -0.689200
     23 N16        206.5140   180.9870   161.6570 n          1 ZC0      -0.255400
     24 N23        204.8780   178.7410   159.9510 nu         1 ZC0      -0.950100
     25 N25        203.1580   180.0290   160.9300 nd         1 ZC0      -0.468300
     26 O07        203.6380   183.0140   170.7910 o          1 ZC0      -0.547100
     27 O19        207.5520   179.8340   160.0270 os         1 ZC0      -0.414100
     28 O26        202.3920   179.8330   162.1390 os         1 ZC0      -0.094700
     29 H011       204.5310   180.7060   169.1080 hc         1 ZC0       0.078700
     30 H012       205.6680   181.5190   170.2210 hc         1 ZC0       0.078700
     31 H022       206.5220   181.3290   167.8190 h1         1 ZC0       0.055200
     32 H021       206.3050   183.0280   168.2840 h1         1 ZC0       0.055200
     33 H041       203.0560   183.3240   166.3470 h4         1 ZC0       0.196000
     34 H2         202.2390   183.6970   168.6770 ha         1 ZC0       0.210000
     35 H101       205.9850   179.2730   163.6920 ha         1 ZC0       0.164000
     36 H171       206.6840   182.6120   160.2900 h1         1 ZC0       0.090700
     37 H172       205.0420   181.9230   160.4040 h1         1 ZC0       0.090700
     38 H181       206.9400   181.0970   158.4740 h1         1 ZC0       0.097700
     39 H222       204.5140   180.3280   158.5680 h1         1 ZC0       0.072200
     40 H221       205.6880   179.1320   158.0320 h1         1 ZC0       0.072200
     41 H271       202.3380   178.3600   163.6580 h4         1 ZC0       0.058100
     42 H281       204.3300   177.1830   162.1610 ha         1 ZC0       0.156000
     43 H231       205.4060   177.8780   160.0760 hn         1 ZC0       0.508000
     44 O21        208.0070   179.2580   162.1940 o          1 ZC0      -0.509000
@<TRIPOS>BOND
     1     1     2 1   
     2     1     5 1   
     3     1    29 1   
     4     1    30 1   
     5     2    22 1   
     6     2    31 1   
     7     2    32 1   
     8     3     4 2   
     9     3    22 1   
    10     3    33 1   
    11     4     5 1   
    12     4    34 1   
    13     5    26 2   
    14     6     7 ar  
    15     6    11 ar  
    16     6    22 1   
    17     7     8 ar  
    18     7    21 1   
    19     8     9 ar  
    20     8    35 1   
    21     9    10 ar  
    22     9    23 1   
    23    10    11 ar  
    24    10    20 1   
    25    11    19 1   
    26    12    13 1   
    27    12    23 1   
    28    12    36 1   
    29    12    37 1   
    30    13    15 1   
    31    13    27 1   
    32    13    38 1   
    33    14    23 1   
    34    14    27 1   
    35    14    44 2   
    36    15    24 1   
    37    15    39 1   
    38    15    40 1   
    39    16    18 1   
    40    16    24 1   
    41    16    25 2   
    42    17    18 2   
    43    17    28 1   
    44    17    41 1   
    45    18    42 1   
    46    24    43 1   
    47    25    28 1   
@<TRIPOS>SUBSTRUCTURE
     1 ZC0         1 TEMP              0 ****  ****    0 ROOT
