@<TRIPOS>MOLECULE
ZC3
   21    22     1     0     0
SMALL
bcc


@<TRIPOS>ATOM
      1 NAG          0.2060    -1.2970    -0.0100 nc         1 ZC3      -0.609100
      2 CAM         -0.9800    -0.6090    -0.0020 ca         1 ZC3       0.149400
      3 CAF         -2.2460    -1.1960    -0.0190 ca         1 ZC3      -0.133000
      4 CAK         -3.3330    -0.3540    -0.0070 ca         1 ZC3       0.141900
      5 FAC         -4.5640    -0.8910    -0.0220 f          1 ZC3      -0.142900
      6 CAD         -3.2260     1.0330     0.0200 ca         1 ZC3      -0.173000
      7 CAE         -1.9700     1.6150     0.0370 ca         1 ZC3      -0.053000
      8 CAN         -0.8560     0.7870     0.0260 ca         1 ZC3      -0.121100
      9 SAI          0.8260     1.2270     0.0410 ss         1 ZC3       0.009900
     10 CAL          1.2020    -0.4790     0.0090 cd         1 ZC3       0.446800
     11 NAH          2.4920    -0.9320     0.0060 ns         1 ZC3      -0.470400
     12 CAJ          3.6020    -0.1360     0.0250 c          1 ZC3       0.675100
     13 OAB          3.5000     1.0760     0.0470 o          1 ZC3      -0.565100
     14 CAA          4.9150    -0.8580     0.0100 c3         1 ZC3      -0.173100
     15 HAF         -2.3630    -2.2720    -0.0400 ha         1 ZC3       0.165000
     16 HAD         -4.1170     1.6470     0.0280 ha         1 ZC3       0.152000
     17 HAE         -1.8710     2.6920     0.0570 ha         1 ZC3       0.145000
     18 HAH          2.5970    -1.9370    -0.0130 hn         1 ZC3       0.342500
     19 HAA1         4.8150    -1.9400     0.0450 hc         1 ZC3       0.071033
     20 HAA2         5.4610    -0.5880    -0.8940 hc         1 ZC3       0.071033
     21 HAA3         5.5130    -0.5320     0.8610 hc         1 ZC3       0.071033
@<TRIPOS>BOND
     1     1     2 1   
     2     1    10 2   
     3     2     3 ar  
     4     2     8 ar  
     5     3     4 ar  
     6     3    15 1   
     7     4     5 1   
     8     4     6 ar  
     9     6     7 ar  
    10     6    16 1   
    11     7     8 ar  
    12     7    17 1   
    13     8     9 1   
    14     9    10 1   
    15    10    11 1   
    16    11    12 1   
    17    11    18 1   
    18    12    13 2   
    19    12    14 1   
    20    14    19 1   
    21    14    20 1   
    22    14    21 1   
@<TRIPOS>SUBSTRUCTURE
     1 ZC3         1 TEMP              0 ****  ****    0 ROOT
