@<TRIPOS>MOLECULE
ZC3
   21    22     1     0     0
SMALL
No Charge or Current Charge


@<TRIPOS>ATOM
      1 NAG          0.2450    -1.2520    -0.1170 nc         1 ZC3      -0.609100
      2 CAM         -0.9610    -0.5600    -0.0670 ca         1 ZC3       0.149400
      3 CAF         -2.2130    -1.1840    -0.1690 ca         1 ZC3      -0.115000
      4 CAK         -3.3810    -0.4030    -0.1090 ca         1 ZC3       0.177000
      5 FAC         -4.5900    -0.9990    -0.2060 f          1 ZC3      -0.178000
      6 CAD         -3.3040     0.9930     0.0530 ca         1 ZC3      -0.155000
      7 CAE         -2.0470     1.6170     0.1540 ca         1 ZC3      -0.035000
      8 CAN         -0.8990     0.8120     0.0910 ca         1 ZC3      -0.248000
      9 SAI          0.7570     1.3790     0.1960 ss         1 ZC3       0.136800
     10 CAL          1.2210    -0.3450     0.0110 cd         1 ZC3       0.446800
     11 NAH          2.5180    -0.7930    -0.0090 ns         1 ZC3      -0.403400
     12 CAJ          3.6880    -0.0810     0.1010 c          1 ZC3       0.608100
     13 OAB          3.7380     1.1310     0.2400 o          1 ZC3      -0.565100
     14 CAA          4.9500    -0.9320     0.0350 c3         1 ZC3      -0.173100
     15 HAF         -2.2810    -2.2600    -0.2930 ha         1 ZC3       0.147000
     16 HAD         -4.2140     1.5860     0.0980 ha         1 ZC3       0.134000
     17 HAE         -1.9700     2.6960     0.2790 ha         1 ZC3       0.127000
     18 HAH          2.6450    -1.7880    -0.1190 hn         1 ZC3       0.342500
     19 HAA1         4.8980    -1.7100     0.8040 hc         1 ZC3       0.071033
     20 HAA2         4.9390    -1.5160    -0.8920 hc         1 ZC3       0.071033
     21 HAA3         5.8640    -0.3350     0.1250 hc         1 ZC3       0.071033
@<TRIPOS>BOND
     1     1     2 1   
     2     1    10 2   
     3     2     3 ar  
     4     2     8 ar  
     5     3     4 ar  
     6     3    15 1   
     7     4     5 1   
     8     4     6 ar  
     9     6     7 ar  
    10     6    16 1   
    11     7     8 ar  
    12     7    17 1   
    13     8     9 1   
    14     9    10 1   
    15    10    11 1   
    16    11    12 1   
    17    11    18 1   
    18    12    13 2   
    19    12    14 1   
    20    14    19 1   
    21    14    20 1   
    22    14    21 1   
@<TRIPOS>SUBSTRUCTURE
     1 ZC3         1 TEMP              0 ****  ****    0 ROOT
