@<TRIPOS>MOLECULE
ZC9
   18    19     1     0     0
SMALL
No Charge or Current Charge


@<TRIPOS>ATOM
      1 C10         26.7650   -38.1150    12.2930 cc         1 ZC9       0.230900
      2 N12         27.3800   -39.5110    10.8210 na         1 ZC9       0.028800
      3 C02         27.1070   -38.0740     5.8740 ca         1 ZC9       0.119000
      4 C03         26.6420   -36.9590     6.5870 ca         1 ZC9      -0.111000
      5 C04         26.5960   -37.0450     7.9920 ca         1 ZC9      -0.113000
      6 C05         27.0140   -38.2330     8.6300 ca         1 ZC9       0.410500
      7 N06         27.4640   -39.3110     7.9410 nb         1 ZC9      -0.672000
      8 C07         27.5060   -39.2240     6.5860 ca         1 ZC9       0.317900
      9 C08         26.9870   -38.3750    10.0950 cd         1 ZC9      -0.216500
     10 C09         26.5940   -37.4850    11.0530 cc         1 ZC9      -0.207000
     11 N11         27.2380   -39.3410    12.2020 nd         1 ZC9      -0.508800
     12 H1          26.5550   -37.7050    13.2720 h4         1 ZC9       0.038100
     13 H2          27.7330   -40.3790    10.4170 hn         1 ZC9       0.388000
     14 H3          26.3270   -36.0570     6.0680 ha         1 ZC9       0.141000
     15 H4          26.2420   -36.2020     8.5770 ha         1 ZC9       0.136000
     16 H5          27.8710   -40.1030     6.0540 h4         1 ZC9       0.040100
     17 H6          26.2170   -36.4760    10.9180 ha         1 ZC9       0.143000
     18 F01         27.1690   -38.0400     4.5230 f          1 ZC9      -0.164000
@<TRIPOS>BOND
     1     1    10 1   
     2     1    11 2   
     3     1    12 1   
     4     2     9 1   
     5     2    11 1   
     6     2    13 1   
     7     3     4 ar  
     8     3     8 ar  
     9     3    18 1   
    10     4     5 ar  
    11     4    14 1   
    12     5     6 ar  
    13     5    15 1   
    14     6     7 ar  
    15     6     9 1   
    16     7     8 ar  
    17     8    16 1   
    18     9    10 2   
    19    10    17 1   
@<TRIPOS>SUBSTRUCTURE
     1 ZC9         1 TEMP              0 ****  ****    0 ROOT
