@<TRIPOS>MOLECULE
ZC9
   18    19     1     0     0
SMALL
abcg2


@<TRIPOS>ATOM
      1 C10         26.7810   -38.1520    12.2750 cc         1 ZC9       0.230900
      2 N12         27.3530   -39.4430    10.7230 na         1 ZC9       0.028800
      3 C02         27.1160   -38.1090     5.9430 ca         1 ZC9       0.119000
      4 C03         26.6500   -36.9910     6.6060 ca         1 ZC9      -0.111000
      5 C04         26.5950   -37.0430     7.9860 ca         1 ZC9      -0.113000
      6 C05         27.0060   -38.2050     8.6360 ca         1 ZC9       0.410500
      7 N06         27.4530   -39.2690     7.9720 nb         1 ZC9      -0.672000
      8 C07         27.5100   -39.2300     6.6510 ca         1 ZC9       0.317900
      9 C08         26.9670   -38.3190    10.0900 cd         1 ZC9      -0.216500
     10 C09         26.5810   -37.4400    11.0840 cc         1 ZC9      -0.207000
     11 N11         27.2500   -39.3670    12.0400 nd         1 ZC9      -0.508800
     12 H1          26.6010   -37.8230    13.2870 h4         1 ZC9       0.038100
     13 H2          27.6940   -40.2850    10.2840 hn         1 ZC9       0.388000
     14 H3          26.3380   -36.1090     6.0630 ha         1 ZC9       0.141000
     15 H4          26.2340   -36.1910     8.5460 ha         1 ZC9       0.136000
     16 H5          27.8790   -40.1090     6.1350 h4         1 ZC9       0.040100
     17 H6          26.2110   -36.4350    10.9710 ha         1 ZC9       0.143000
     18 F01         27.1890   -38.1160     4.6090 f          1 ZC9      -0.164000
@<TRIPOS>BOND
     1     1    10 1   
     2     1    11 2   
     3     1    12 1   
     4     2     9 1   
     5     2    11 1   
     6     2    13 1   
     7     3     4 ar  
     8     3     8 ar  
     9     3    18 1   
    10     4     5 ar  
    11     4    14 1   
    12     5     6 ar  
    13     5    15 1   
    14     6     7 ar  
    15     6     9 1   
    16     7     8 ar  
    17     8    16 1   
    18     9    10 2   
    19    10    17 1   
@<TRIPOS>SUBSTRUCTURE
     1 ZC9         1 TEMP              0 ****  ****    0 ROOT
