@<TRIPOS>MOLECULE
ZCD
   24    24     1     0     0
SMALL
bcc


@<TRIPOS>ATOM
      1 C1         -10.2920   -17.5190   -30.7420 c6         1 ZCD       0.319900
      2 C2          -9.4360   -17.5340   -29.4660 c6         1 ZCD       0.059100
      3 C3          -9.4630   -16.1630   -28.7860 c6         1 ZCD       0.139100
      4 C4          -9.1770   -15.0150   -29.7610 c6         1 ZCD       0.138100
      5 C5          -9.9970   -15.1820   -31.0440 c6         1 ZCD       0.117100
      6 C6          -9.5650   -14.2360   -32.1530 c3         1 ZCD       0.133400
      7 O1         -11.6590   -17.4480   -30.4830 oh         1 ZCD      -0.609800
      8 O2          -8.1000   -17.8410   -29.7730 oh         1 ZCD      -0.555800
      9 O3         -10.7500   -15.9280   -28.2380 oh         1 ZCD      -0.606800
     10 O4          -7.7910   -14.9750   -29.9980 oh         1 ZCD      -0.574800
     11 O5          -9.8760   -16.4830   -31.5900 os         1 ZCD      -0.407600
     12 O6          -9.5630   -12.9240   -31.6400 oh         1 ZCD      -0.611800
     13 H1         -10.1040   -18.4370   -31.3120 h2         1 ZCD       0.090700
     14 HO1        -11.8020   -17.1030   -29.5930 ho         1 ZCD       0.423000
     15 H2          -9.8540   -18.2780   -28.7700 h1         1 ZCD       0.030700
     16 HO2         -8.0620   -18.7550   -30.0700 ho         1 ZCD       0.404000
     17 H3          -8.7000   -16.1430   -27.9980 h1         1 ZCD       0.070700
     18 HO3        -10.8550   -16.4880   -27.4620 ho         1 ZCD       0.412000
     19 H4          -9.5140   -14.0940   -29.2700 h1         1 ZCD       0.061700
     20 HO4         -7.5740   -14.0920   -30.3120 ho         1 ZCD       0.411000
     21 H5         -11.0450   -14.9670   -30.7950 h1         1 ZCD       0.064700
     22 H61        -10.2580   -14.3410   -32.9970 h1         1 ZCD       0.039700
     23 H62         -8.5730   -14.5320   -32.5160 h1         1 ZCD       0.039700
     24 HO6         -9.2620   -12.3310   -32.3340 ho         1 ZCD       0.411000
@<TRIPOS>BOND
     1     1     2 1   
     2     1     7 1   
     3     1    11 1   
     4     1    13 1   
     5     2     3 1   
     6     2     8 1   
     7     2    15 1   
     8     3     4 1   
     9     3     9 1   
    10     3    17 1   
    11     4     5 1   
    12     4    10 1   
    13     4    19 1   
    14     5     6 1   
    15     5    11 1   
    16     5    21 1   
    17     6    12 1   
    18     6    22 1   
    19     6    23 1   
    20     7    14 1   
    21     8    16 1   
    22     9    18 1   
    23    10    20 1   
    24    12    24 1   
@<TRIPOS>SUBSTRUCTURE
     1 ZCD         1 TEMP              0 ****  ****    0 ROOT
