@<TRIPOS>MOLECULE
ZCD
   24    24     1     0     0
SMALL
No Charge or Current Charge


@<TRIPOS>ATOM
      1 C1         -10.2490   -17.6210   -30.8100 c6         1 ZCD       0.366300
      2 C2          -9.3980   -17.6710   -29.4870 c6         1 ZCD       0.082300
      3 C3          -9.5270   -16.2850   -28.7510 c6         1 ZCD       0.162300
      4 C4          -9.1520   -15.0800   -29.6960 c6         1 ZCD       0.161300
      5 C5          -9.9820   -15.1930   -31.0250 c6         1 ZCD       0.140300
      6 C6          -9.5880   -14.1360   -32.1050 c3         1 ZCD       0.156600
      7 O1         -11.6320   -17.4510   -30.5070 oh         1 ZCD      -0.732000
      8 O2          -8.0120   -18.0110   -29.7400 oh         1 ZCD      -0.678000
      9 O3         -10.8920   -16.1330   -28.2880 oh         1 ZCD      -0.729000
     10 O4          -7.7280   -15.0200   -29.9450 oh         1 ZCD      -0.697000
     11 O5          -9.8360   -16.5090   -31.6360 os         1 ZCD      -0.454000
     12 O6          -9.6240   -12.7860   -31.6050 oh         1 ZCD      -0.734000
     13 H1         -10.1070   -18.5590   -31.3710 h2         1 ZCD       0.090700
     14 HO1        -11.5960   -16.9320   -29.6560 ho         1 ZCD       0.522000
     15 H2          -9.8310   -18.4420   -28.8320 h1         1 ZCD       0.030700
     16 HO2         -7.9880   -18.9300   -30.0940 ho         1 ZCD       0.503000
     17 H3          -8.8390   -16.2860   -27.8920 h1         1 ZCD       0.070700
     18 HO3        -10.8560   -15.6090   -27.4500 ho         1 ZCD       0.511000
     19 H4          -9.4610   -14.1550   -29.1870 h1         1 ZCD       0.061700
     20 HO4         -7.5680   -14.1750   -30.4240 ho         1 ZCD       0.510000
     21 H5         -11.0430   -15.0210   -30.7930 h1         1 ZCD       0.064700
     22 H61        -10.2840   -14.2430   -32.9490 h1         1 ZCD       0.039700
     23 H62         -8.5840   -14.3740   -32.4830 h1         1 ZCD       0.039700
     24 HO6         -9.4960   -12.1860   -32.3790 ho         1 ZCD       0.510000
@<TRIPOS>BOND
     1     1     2 1   
     2     1     7 1   
     3     1    11 1   
     4     1    13 1   
     5     2     3 1   
     6     2     8 1   
     7     2    15 1   
     8     3     4 1   
     9     3     9 1   
    10     3    17 1   
    11     4     5 1   
    12     4    10 1   
    13     4    19 1   
    14     5     6 1   
    15     5    11 1   
    16     5    21 1   
    17     6    12 1   
    18     6    22 1   
    19     6    23 1   
    20     7    14 1   
    21     8    16 1   
    22     9    18 1   
    23    10    20 1   
    24    12    24 1   
@<TRIPOS>SUBSTRUCTURE
     1 ZCD         1 TEMP              0 ****  ****    0 ROOT
