@<TRIPOS>MOLECULE
ZCF
   54    57     1     0     0
SMALL
No Charge or Current Charge


@<TRIPOS>ATOM
      1 C01          4.5200   -13.7440   -18.6760 ca         1 ZCF      -0.113000
      2 C02          5.8900   -13.6800   -18.3760 ca         1 ZCF      -0.072300
      3 C03          6.3020   -13.0370   -17.1970 ca         1 ZCF      -0.113000
      4 C04          5.3560   -12.4600   -16.3310 ca         1 ZCF      -0.094000
      5 C05          3.9730   -12.5020   -16.6300 ca         1 ZCF      -0.071300
      6 C06          3.5740   -13.1680   -17.8110 ca         1 ZCF      -0.094000
      7 C07          6.9150   -14.3020   -19.3120 c3         1 ZCF      -0.046800
      8 C08          2.9080   -11.8980   -15.6840 c5         1 ZCF      -0.028000
      9 C09          3.4880   -10.7660   -14.7790 c5         1 ZCF      -0.069900
     10 C10          2.1930   -10.1010   -14.2330 c5         1 ZCF      -0.080900
     11 C11          1.1580   -10.2200   -15.4000 c5         1 ZCF      -0.080900
     12 C12          1.8710   -11.0640   -16.5010 c5         1 ZCF      -0.069900
     13 C13          1.0260   -14.6560   -14.3470 cc         1 ZCF       0.438300
     14 C14          2.3030   -13.0740   -14.9030 cd         1 ZCF       0.564300
     15 C16          0.0400   -16.7690   -16.4830 c3         1 ZCF       0.154100
     16 C17          1.3710   -17.7300   -14.6490 c3         1 ZCF       0.257100
     17 C18          1.4110   -18.0930   -13.1900 cc         1 ZCF      -0.219300
     18 C19          0.4920   -18.7500   -12.4260 cd         1 ZCF      -0.152000
     19 C20          2.4780   -17.7920   -12.3290 cc         1 ZCF       0.252900
     20 N01          2.8770   -13.5760   -13.8160 nc         1 ZCF      -0.380300
     21 N02          1.1390   -13.7200   -15.2680 nd         1 ZCF      -0.716000
     22 N03          0.1470   -16.9790   -15.0210 n3         1 ZCF      -0.728600
     23 N04          1.0560   -18.8020   -11.1480 na         1 ZCF       0.129800
     24 N05          2.3050   -18.2010   -11.0890 nd         1 ZCF      -0.528800
     25 O01          2.0270   -14.6330   -13.4280 os         1 ZCF      -0.088700
     26 H1           4.1830   -14.2460   -19.5810 ha         1 ZCF       0.110500
     27 H2           7.3590   -12.9850   -16.9460 ha         1 ZCF       0.110500
     28 H3           5.7190   -11.9880   -15.4220 ha         1 ZCF       0.115500
     29 H4           2.5210   -13.2530   -18.0650 ha         1 ZCF       0.115500
     30 H5           7.2490   -13.5750   -20.0620 hc         1 ZCF       0.042033
     31 H6           7.7990   -14.6500   -18.7640 hc         1 ZCF       0.042033
     32 H7           6.4980   -15.1650   -19.8450 hc         1 ZCF       0.042033
     33 H8           4.1310   -11.1320   -13.9710 hc         1 ZCF       0.056200
     34 H9           4.0770   -10.0470   -15.3610 hc         1 ZCF       0.056200
     35 H10          1.8300   -10.6230   -13.3400 hc         1 ZCF       0.046450
     36 H11          2.3660    -9.0590   -13.9390 hc         1 ZCF       0.046450
     37 H12          0.8590    -9.2380   -15.7830 hc         1 ZCF       0.046450
     38 H13          0.2430   -10.7140   -15.0540 hc         1 ZCF       0.046450
     39 H14          2.3750   -10.4080   -17.2220 hc         1 ZCF       0.056200
     40 H15          1.1610   -11.6720   -17.0730 hc         1 ZCF       0.056200
     41 H16         -0.1700   -15.9540   -13.1650 h1         1 ZCF       0.083700
     42 H17         -1.0070   -15.2460   -14.5280 h1         1 ZCF       0.083700
     43 H18          0.0690   -17.7290   -17.0170 h1         1 ZCF       0.039700
     44 H19         -0.9070   -16.2730   -16.7370 h1         1 ZCF       0.039700
     45 H20          0.8650   -16.1470   -16.8560 h1         1 ZCF       0.039700
     46 H21          1.4260   -18.6620   -15.2280 h1         1 ZCF       0.044200
     47 H22          2.2680   -17.1460   -14.8980 h1         1 ZCF       0.044200
     48 H23         -0.4800   -19.1630   -12.6710 h4         1 ZCF       0.157000
     49 H24          3.3940   -17.2720   -12.5820 h4         1 ZCF       0.042100
     50 H25          0.3390   -18.6460    -9.1730 h1         1 ZCF       0.055367
     51 H26         -0.5300   -19.8230   -10.2020 h1         1 ZCF       0.055367
     52 H27          1.1020   -20.2120    -9.5840 h1         1 ZCF       0.055367
     53 C15         -0.0600   -15.7160   -14.2310 c3         1 ZCF       0.148500
     54 C21          0.4540   -19.4090    -9.9520 c3         1 ZCF       0.072900
@<TRIPOS>BOND
     1     1     2 ar  
     2     1     6 ar  
     3     1    26 1   
     4     2     3 ar  
     5     2     7 1   
     6     3     4 ar  
     7     3    27 1   
     8     4     5 ar  
     9     4    28 1   
    10     5     6 ar  
    11     5     8 1   
    12     6    29 1   
    13     7    30 1   
    14     7    31 1   
    15     7    32 1   
    16     8     9 1   
    17     8    12 1   
    18     8    14 1   
    19     9    10 1   
    20     9    33 1   
    21     9    34 1   
    22    10    11 1   
    23    10    35 1   
    24    10    36 1   
    25    11    12 1   
    26    11    37 1   
    27    11    38 1   
    28    12    39 1   
    29    12    40 1   
    30    13    21 2   
    31    13    25 1   
    32    13    53 1   
    33    14    20 2   
    34    14    21 1   
    35    15    22 1   
    36    15    43 1   
    37    15    44 1   
    38    15    45 1   
    39    16    17 1   
    40    16    22 1   
    41    16    46 1   
    42    16    47 1   
    43    17    18 2   
    44    17    19 1   
    45    18    23 1   
    46    18    48 1   
    47    19    24 2   
    48    19    49 1   
    49    20    25 1   
    50    22    53 1   
    51    23    24 1   
    52    23    54 1   
    53    41    53 1   
    54    42    53 1   
    55    50    54 1   
    56    51    54 1   
    57    52    54 1   
@<TRIPOS>SUBSTRUCTURE
     1 ZCF         1 TEMP              0 ****  ****    0 ROOT
