@<TRIPOS>MOLECULE
ZCF
   54    57     1     0     0
SMALL
abcg2


@<TRIPOS>ATOM
      1 C01          4.0730   -13.0020   -19.1660 ca         1 ZCF      -0.113000
      2 C02          5.2620   -13.6640   -18.8770 ca         1 ZCF      -0.072300
      3 C03          5.6620   -13.7210   -17.5430 ca         1 ZCF      -0.113000
      4 C04          4.9050   -13.1330   -16.5410 ca         1 ZCF      -0.094000
      5 C05          3.7190   -12.4630   -16.8350 ca         1 ZCF      -0.071300
      6 C06          3.3120   -12.4130   -18.1640 ca         1 ZCF      -0.094000
      7 C07          6.0950   -14.2780   -19.9630 c3         1 ZCF      -0.046800
      8 C08          2.8980   -11.8590   -15.7100 c5         1 ZCF      -0.028000
      9 C09          3.7040   -10.9150   -14.8010 c5         1 ZCF      -0.069900
     10 C10          2.6570   -10.0670   -14.0600 c5         1 ZCF      -0.080900
     11 C11          1.3500   -10.2090   -14.8700 c5         1 ZCF      -0.080900
     12 C12          1.7500   -10.9380   -16.1530 c5         1 ZCF      -0.069900
     13 C13          1.2250   -14.7320   -14.5430 cc         1 ZCF       0.438300
     14 C14          2.3190   -13.0070   -14.9370 cd         1 ZCF       0.564300
     15 C16          1.6590   -17.1000   -16.3310 c3         1 ZCF       0.154100
     16 C17          2.1590   -17.6100   -14.0320 c3         1 ZCF       0.257100
     17 C18          1.5980   -17.9020   -12.6810 cc         1 ZCF      -0.219300
     18 C19          0.5510   -18.7410   -12.3600 cd         1 ZCF      -0.152000
     19 C20          2.0070   -17.3930   -11.4390 cc         1 ZCF       0.252900
     20 N01          2.6090   -13.2810   -13.7040 nc         1 ZCF      -0.380300
     21 N02          1.4460   -13.8960   -15.5000 nd         1 ZCF      -0.716000
     22 N03          1.1460   -17.1680   -14.9790 n3         1 ZCF      -0.728600
     23 N04          0.4030   -18.6910   -11.0250 na         1 ZCF       0.129800
     24 N05          1.2810   -17.8800   -10.4470 nd         1 ZCF      -0.528800
     25 O01          1.8900   -14.4170   -13.4370 os         1 ZCF      -0.088700
     26 H1           3.7270   -12.9480   -20.1920 ha         1 ZCF       0.110500
     27 H2           6.5790   -14.2370   -17.2810 ha         1 ZCF       0.110500
     28 H3           5.2440   -13.2090   -15.5140 ha         1 ZCF       0.115500
     29 H4           2.3890   -11.9190   -18.4360 ha         1 ZCF       0.115500
     30 H5           6.8050   -13.5550   -20.3690 hc         1 ZCF       0.042033
     31 H6           6.6720   -15.1250   -19.5950 hc         1 ZCF       0.042033
     32 H7           5.4790   -14.6240   -20.7940 hc         1 ZCF       0.042033
     33 H8           4.3850   -11.4350   -14.1280 hc         1 ZCF       0.056200
     34 H9           4.3160   -10.2830   -15.4470 hc         1 ZCF       0.056200
     35 H10          2.5210   -10.4170   -13.0360 hc         1 ZCF       0.046450
     36 H11          2.9800    -9.0280   -13.9960 hc         1 ZCF       0.046450
     37 H12          0.8810    -9.2490   -15.0830 hc         1 ZCF       0.046450
     38 H13          0.6160   -10.7970   -14.3150 hc         1 ZCF       0.046450
     39 H14          2.1410   -10.2270   -16.8840 hc         1 ZCF       0.056200
     40 H15          0.9220   -11.4710   -16.6220 hc         1 ZCF       0.056200
     41 H16         -0.0440   -16.1550   -13.6010 h1         1 ZCF       0.083700
     42 H17         -0.4030   -15.8260   -15.2920 h1         1 ZCF       0.083700
     43 H18          2.0190   -18.0850   -16.6300 h1         1 ZCF       0.039700
     44 H19          0.8610   -16.8120   -17.0170 h1         1 ZCF       0.039700
     45 H20          2.4870   -16.3900   -16.4630 h1         1 ZCF       0.039700
     46 H21          2.6020   -18.5170   -14.4530 h1         1 ZCF       0.044200
     47 H22          2.9910   -16.8970   -13.9320 h1         1 ZCF       0.044200
     48 H23         -0.0870   -19.3510   -12.9790 h4         1 ZCF       0.157000
     49 H24          2.8050   -16.6920   -11.2410 h4         1 ZCF       0.042100
     50 H25         -1.1750   -18.6980    -9.6580 h1         1 ZCF       0.055367
     51 H26         -1.2120   -19.9740   -10.8820 h1         1 ZCF       0.055367
     52 H27         -0.0690   -20.0800    -9.5350 h1         1 ZCF       0.055367
     53 C15          0.4070   -15.9880   -14.5800 c3         1 ZCF       0.148500
     54 C21         -0.5660   -19.4000   -10.2250 c3         1 ZCF       0.072900
@<TRIPOS>BOND
     1     1     2 ar  
     2     1     6 ar  
     3     1    26 1   
     4     2     3 ar  
     5     2     7 1   
     6     3     4 ar  
     7     3    27 1   
     8     4     5 ar  
     9     4    28 1   
    10     5     6 ar  
    11     5     8 1   
    12     6    29 1   
    13     7    30 1   
    14     7    31 1   
    15     7    32 1   
    16     8     9 1   
    17     8    12 1   
    18     8    14 1   
    19     9    10 1   
    20     9    33 1   
    21     9    34 1   
    22    10    11 1   
    23    10    35 1   
    24    10    36 1   
    25    11    12 1   
    26    11    37 1   
    27    11    38 1   
    28    12    39 1   
    29    12    40 1   
    30    13    21 2   
    31    13    25 1   
    32    13    53 1   
    33    14    20 2   
    34    14    21 1   
    35    15    22 1   
    36    15    43 1   
    37    15    44 1   
    38    15    45 1   
    39    16    17 1   
    40    16    22 1   
    41    16    46 1   
    42    16    47 1   
    43    17    18 2   
    44    17    19 1   
    45    18    23 1   
    46    18    48 1   
    47    19    24 2   
    48    19    49 1   
    49    20    25 1   
    50    22    53 1   
    51    23    24 1   
    52    23    54 1   
    53    41    53 1   
    54    42    53 1   
    55    50    54 1   
    56    51    54 1   
    57    52    54 1   
@<TRIPOS>SUBSTRUCTURE
     1 ZCF         1 TEMP              0 ****  ****    0 ROOT
