@<TRIPOS>MOLECULE
ZCI
    9     9     1     0     0
SMALL
No Charge or Current Charge


@<TRIPOS>ATOM
      1 Br01         8.3630   -19.4450    32.0350 br         1 ZCI      -0.098200
      2 C02          6.6580   -18.6770    31.8020 cc         1 ZCI       0.436700
      3 N03          6.3480   -17.3980    32.1810 na         1 ZCI      -0.288500
      4 C04          5.0220   -17.1760    31.8610 cc         1 ZCI      -0.215000
      5 C05          4.5890   -18.3490    31.2950 cd         1 ZCI       0.230900
      6 N06          5.6120   -19.2770    31.2620 nd         1 ZCI      -0.634000
      7 H1           6.9940   -16.7490    32.6170 hn         1 ZCI       0.364000
      8 H2           4.5030   -16.2430    32.0480 h4         1 ZCI       0.161000
      9 H3           3.6010   -18.5760    30.9120 h4         1 ZCI       0.043100
@<TRIPOS>BOND
     1     1     2 1   
     2     2     3 1   
     3     2     6 2   
     4     3     4 1   
     5     3     7 1   
     6     4     5 2   
     7     4     8 1   
     8     5     6 1   
     9     5     9 1   
@<TRIPOS>SUBSTRUCTURE
     1 ZCI         1 TEMP              0 ****  ****    0 ROOT
