@<TRIPOS>MOLECULE
ZCI
    9     9     1     0     0
SMALL
abcg2


@<TRIPOS>ATOM
      1 BR01         8.3160   -19.4150    32.0340 br         1 ZCI      -0.098200
      2 C02          6.6330   -18.6670    31.7970 cc         1 ZCI       0.436700
      3 N03          6.3470   -17.4080    32.1770 na         1 ZCI      -0.288500
      4 C04          5.0360   -17.1900    31.8600 cc         1 ZCI      -0.215000
      5 C05          4.6020   -18.3540    31.2970 cd         1 ZCI       0.230900
      6 N06          5.6160   -19.2740    31.2640 nd         1 ZCI      -0.634000
      7 H1           6.9740   -16.7470    32.6100 hn         1 ZCI       0.364000
      8 H2           4.5460   -16.2520    32.0600 h4         1 ZCI       0.161000
      9 H3           3.6200   -18.5830    30.9150 h4         1 ZCI       0.043100
@<TRIPOS>BOND
     1     1     2 1   
     2     2     3 1   
     3     2     6 2   
     4     3     4 1   
     5     3     7 1   
     6     4     5 2   
     7     4     8 1   
     8     5     6 1   
     9     5     9 1   
@<TRIPOS>SUBSTRUCTURE
     1 ZCI         1 TEMP              0 ****  ****    0 ROOT
