@<TRIPOS>MOLECULE
ZCQ
   15    15     1     0     0
SMALL
No Charge or Current Charge


@<TRIPOS>ATOM
      1 C1           1.8600    -0.3690    -0.1520 ca         1 ZCQ       0.138100
      2 C2           0.5240    -0.8070    -0.1280 ca         1 ZCQ      -0.155000
      3 C3          -0.5370     0.1310    -0.0360 ca         1 ZCQ      -0.133200
      4 C4          -0.2250     1.5110     0.0310 ca         1 ZCQ      -0.083000
      5 C5           1.1130     1.9400     0.0060 ca         1 ZCQ      -0.085000
      6 C6           2.1540     1.0010    -0.0850 ca         1 ZCQ      -0.105000
      7 N1          -1.9690    -0.3280    -0.0110 no         1 ZCQ       0.691200
      8 O1           2.8800    -1.2710    -0.2400 oh         1 ZCQ      -0.525100
      9 O2          -2.1960    -1.5450    -0.0710 o          1 ZCQ      -0.396500
     10 O3          -2.8590     0.5300     0.0700 o          1 ZCQ      -0.396500
     11 H1O          2.5000    -2.1750    -0.2770 ho         1 ZCQ       0.475000
     12 H21          0.3100    -1.8720    -0.1810 ha         1 ZCQ       0.151000
     13 H41         -1.0150     2.2570     0.1020 ha         1 ZCQ       0.155000
     14 H51          1.3440     3.0020     0.0580 ha         1 ZCQ       0.131000
     15 H61          3.1880     1.3350    -0.1030 ha         1 ZCQ       0.139000
@<TRIPOS>BOND
     1     1     2 ar  
     2     1     6 ar  
     3     1     8 1   
     4     2     3 ar  
     5     2    12 1   
     6     3     4 ar  
     7     3     7 1   
     8     4     5 ar  
     9     4    13 1   
    10     5     6 ar  
    11     5    14 1   
    12     6    15 1   
    13     7     9 1   
    14     7    10 1   
    15     8    11 1   
@<TRIPOS>SUBSTRUCTURE
     1 ZCQ         1 TEMP              0 ****  ****    0 ROOT
