@<TRIPOS>MOLECULE
ZCQ
   15    15     1     0     0
SMALL
abcg2


@<TRIPOS>ATOM
      1 C1           1.8180    -0.3830    -0.1520 ca         1 ZCQ       0.138100
      2 C2           0.4950    -0.8060    -0.1290 ca         1 ZCQ      -0.155000
      3 C3          -0.5080     0.1490    -0.0360 ca         1 ZCQ      -0.133200
      4 C4          -0.2420     1.5060     0.0330 ca         1 ZCQ      -0.083000
      5 C5           1.0870     1.9050     0.0070 ca         1 ZCQ      -0.085000
      6 C6           2.1110     0.9800    -0.0840 ca         1 ZCQ      -0.105000
      7 N1          -1.8930    -0.3030    -0.0120 no         1 ZCQ       0.691200
      8 O1           2.8470    -1.2400    -0.2400 oh         1 ZCQ      -0.525100
      9 O2          -2.1060    -1.4920    -0.0540 o          1 ZCQ      -0.396500
     10 O3          -2.7620     0.5340     0.0490 o          1 ZCQ      -0.396500
     11 H1O          2.5340    -2.1510    -0.2780 ho         1 ZCQ       0.475000
     12 H21          0.2580    -1.8600    -0.1820 ha         1 ZCQ       0.151000
     13 H41         -1.0320     2.2370     0.1050 ha         1 ZCQ       0.155000
     14 H51          1.3240     2.9590     0.0590 ha         1 ZCQ       0.131000
     15 H61          3.1430     1.3050    -0.1030 ha         1 ZCQ       0.139000
@<TRIPOS>BOND
     1     1     2 ar  
     2     1     6 ar  
     3     1     8 1   
     4     2     3 ar  
     5     2    12 1   
     6     3     4 ar  
     7     3     7 1   
     8     4     5 ar  
     9     4    13 1   
    10     5     6 ar  
    11     5    14 1   
    12     6    15 1   
    13     7     9 1   
    14     7    10 1   
    15     8    11 1   
@<TRIPOS>SUBSTRUCTURE
     1 ZCQ         1 TEMP              0 ****  ****    0 ROOT
