@<TRIPOS>MOLECULE
ZCT
   70    75     1     0     0
SMALL
No Charge or Current Charge


@<TRIPOS>ATOM
      1 O1           1.1430   -50.4450   -13.5200 o          1 ZCT      -0.736500
      2 C1          -0.0460   -50.5630   -13.2690 c          1 ZCT       0.724500
      3 O2          -0.6720   -51.5980   -13.4320 o          1 ZCT      -0.736500
      4 C2          -0.8100   -49.3320   -12.7730 c3         1 ZCT      -0.208900
      5 C3          -1.4580   -48.5750   -13.9600 c6         1 ZCT       0.182300
      6 O3          -2.2710   -47.5310   -13.3860 os         1 ZCT      -0.444500
      7 C15         -3.1150   -46.8140   -14.3160 c6         1 ZCT       0.225000
      8 C16         -4.2930   -47.7390   -14.7330 c3         1 ZCT      -0.113100
      9 C4          -0.4340   -47.9520   -14.9410 c6         1 ZCT      -0.078700
     10 C5          -1.0620   -46.8740   -15.8160 cc         1 ZCT      -0.089400
     11 C6          -0.2460   -46.4010   -16.9710 c          1 ZCT       0.566900
     12 O4           0.8650   -46.8750   -17.1800 o          1 ZCT      -0.484100
     13 C7          -0.8650   -45.3140   -17.8540 ca         1 ZCT      -0.119600
     14 C8          -0.1830   -44.8230   -19.0040 ca         1 ZCT       0.136100
     15 O5           1.0410   -45.2930   -19.3850 oh         1 ZCT      -0.499100
     16 C9          -0.7560   -43.8260   -19.8040 ca         1 ZCT      -0.146000
     17 C14         -2.3010   -46.3360   -15.5100 cd         1 ZCT      -0.199900
     18 C13         -2.9030   -45.2520   -16.3170 c          1 ZCT       0.604900
     19 O7          -3.9860   -44.7600   -16.0140 o          1 ZCT      -0.574600
     20 C12         -2.1450   -44.7610   -17.5320 ca         1 ZCT      -0.230600
     21 C11         -2.7030   -43.7480   -18.3600 ca         1 ZCT       0.207100
     22 O6          -3.9090   -43.1880   -18.0450 oh         1 ZCT      -0.536100
     23 C10         -2.0170   -43.2820   -19.5070 cp         1 ZCT      -0.028500
     24 C26         -2.5850   -42.2200   -20.3920 cp         1 ZCT      -0.028500
     25 C27         -3.6960   -42.4630   -21.2350 ca         1 ZCT       0.207100
     26 O13         -4.2440   -43.7140   -21.2530 oh         1 ZCT      -0.536100
     27 C28         -4.2240   -41.4370   -22.0680 ca         1 ZCT      -0.230600
     28 C29         -5.4200   -41.7180   -22.9530 c          1 ZCT       0.604900
     29 O14         -5.9250   -42.8360   -22.9880 o          1 ZCT      -0.574600
     30 C25         -1.9940   -40.9450   -20.4080 ca         1 ZCT      -0.146000
     31 C24         -2.4920   -39.9190   -21.2200 ca         1 ZCT       0.136100
     32 O12         -1.8540   -38.7130   -21.1550 oh         1 ZCT      -0.499100
     33 C23         -3.6180   -40.1410   -22.0650 ca         1 ZCT      -0.119600
     34 C22         -4.1680   -39.0270   -22.9590 c          1 ZCT       0.566900
     35 O11         -3.6570   -37.9140   -23.0260 o          1 ZCT      -0.484100
     36 C21         -5.3760   -39.3510   -23.7710 cc         1 ZCT      -0.089400
     37 C30         -5.9590   -40.6080   -23.7680 cd         1 ZCT      -0.199900
     38 C31         -7.1810   -40.9310   -24.6180 c6         1 ZCT       0.225000
     39 C32         -8.4880   -40.9950   -23.7780 c3         1 ZCT      -0.113100
     40 O10         -7.3490   -39.9390   -25.6570 os         1 ZCT      -0.444500
     41 C20         -5.9120   -38.2380   -24.6620 c6         1 ZCT      -0.078700
     42 C19         -7.3180   -38.5670   -25.2160 c6         1 ZCT       0.182300
     43 C18         -7.7010   -37.6690   -26.4210 c3         1 ZCT      -0.208900
     44 C17         -9.1900   -37.8120   -26.7510 c          1 ZCT       0.724500
     45 O9          -9.9820   -37.1250   -26.1220 o          1 ZCT      -0.736500
     46 O8          -9.5260   -38.6010   -27.6210 o          1 ZCT      -0.736500
     47 H3          -2.1030   -49.2800   -14.5030 h1         1 ZCT       0.057200
     48 H15         -3.5370   -45.9540   -13.7750 h1         1 ZCT       0.073700
     49 H31         -7.0520   -41.9040   -25.1150 h1         1 ZCT       0.073700
     50 H19         -8.0630   -38.4150   -24.4220 h1         1 ZCT       0.057200
     51 H2          -1.6430   -49.6550   -12.1360 hc         1 ZCT       0.030450
     52 H2A         -0.1270   -48.6340   -12.2720 hc         1 ZCT       0.030450
     53 H16         -4.7480   -48.2170   -13.8580 hc         1 ZCT       0.044033
     54 H16A        -5.0800   -47.1650   -15.2370 hc         1 ZCT       0.044033
     55 H16B        -3.9740   -48.5250   -15.4260 hc         1 ZCT       0.044033
     56 H4           0.4020   -47.5240   -14.3730 hc         1 ZCT       0.080200
     57 H4A         -0.0040   -48.7550   -15.5560 hc         1 ZCT       0.080200
     58 HO5          1.3230   -44.8240   -20.1980 ho         1 ZCT       0.459000
     59 H9          -0.2260   -43.4620   -20.6810 ha         1 ZCT       0.116500
     60 HO6         -4.2180   -43.6460   -17.2200 ho         1 ZCT       0.518500
     61 HO13        -4.9970   -43.6760   -21.8990 ho         1 ZCT       0.518500
     62 H25         -1.1360   -40.7620   -19.7660 ha         1 ZCT       0.116500
     63 HO12        -1.1140   -38.7800   -20.5150 ho         1 ZCT       0.459000
     64 H32         -8.5000   -41.8880   -23.1440 hc         1 ZCT       0.044033
     65 H32A        -8.5940   -40.1280   -23.1150 hc         1 ZCT       0.044033
     66 H32B        -9.3710   -41.0420   -24.4250 hc         1 ZCT       0.044033
     67 H20         -5.9660   -37.2840   -24.1190 hc         1 ZCT       0.080200
     68 H20A        -5.2210   -38.0720   -25.5000 hc         1 ZCT       0.080200
     69 H18         -7.5060   -36.6400   -26.0920 hc         1 ZCT       0.030450
     70 H18A        -7.0820   -37.9750   -27.2730 hc         1 ZCT       0.030450
@<TRIPOS>BOND
     1     1     2 1   
     2     2     3 1   
     3     2     4 1   
     4     4     5 1   
     5     4    51 1   
     6     4    52 1   
     7     5     6 1   
     8     5     9 1   
     9     5    47 1   
    10     6     7 1   
    11     7     8 1   
    12     7    17 1   
    13     7    48 1   
    14     8    53 1   
    15     8    54 1   
    16     8    55 1   
    17     9    10 1   
    18     9    56 1   
    19     9    57 1   
    20    10    11 1   
    21    10    17 2   
    22    11    12 2   
    23    11    13 1   
    24    13    14 ar  
    25    13    20 ar  
    26    14    15 1   
    27    14    16 ar  
    28    15    58 1   
    29    16    23 ar  
    30    16    59 1   
    31    17    18 1   
    32    18    19 2   
    33    18    20 1   
    34    20    21 ar  
    35    21    22 1   
    36    21    23 ar  
    37    22    60 1   
    38    23    24 1   
    39    24    25 ar  
    40    24    30 ar  
    41    25    26 1   
    42    25    27 ar  
    43    26    61 1   
    44    27    28 1   
    45    27    33 ar  
    46    28    29 2   
    47    28    37 1   
    48    30    31 ar  
    49    30    62 1   
    50    31    32 1   
    51    31    33 ar  
    52    32    63 1   
    53    33    34 1   
    54    34    35 2   
    55    34    36 1   
    56    36    37 2   
    57    36    41 1   
    58    37    38 1   
    59    38    39 1   
    60    38    40 1   
    61    38    49 1   
    62    39    64 1   
    63    39    65 1   
    64    39    66 1   
    65    40    42 1   
    66    41    42 1   
    67    41    67 1   
    68    41    68 1   
    69    42    43 1   
    70    42    50 1   
    71    43    44 1   
    72    43    69 1   
    73    43    70 1   
    74    44    45 1   
    75    44    46 1   
@<TRIPOS>SUBSTRUCTURE
     1 ZCT         1 TEMP              0 ****  ****    0 ROOT
