@<TRIPOS>MOLECULE
ZCT
   70    75     1     0     0
SMALL
abcg2


@<TRIPOS>ATOM
      1 O1           0.6810   -50.9350   -12.4790 o          1 ZCT      -0.736500
      2 C1          -0.1270   -50.4880   -13.3160 c          1 ZCT       0.724500
      3 O2          -0.4330   -51.0060   -14.4100 o          1 ZCT      -0.736500
      4 C2          -0.8420   -49.1770   -12.9210 c3         1 ZCT      -0.208900
      5 C3          -1.5310   -48.4450   -14.0550 c6         1 ZCT       0.182300
      6 O3          -2.2440   -47.3510   -13.4910 os         1 ZCT      -0.444500
      7 C15         -3.0840   -46.6810   -14.3970 c6         1 ZCT       0.225000
      8 C16         -4.3480   -47.4800   -14.7220 c3         1 ZCT      -0.113100
      9 C4          -0.5490   -47.9260   -15.0930 c6         1 ZCT      -0.078700
     10 C5          -1.1470   -46.8550   -15.9450 cc         1 ZCT      -0.089400
     11 C6          -0.3620   -46.4420   -17.1410 c          1 ZCT       0.566900
     12 O4           0.6870   -47.0100   -17.3740 o          1 ZCT      -0.484100
     13 C7          -0.8910   -45.3590   -17.9900 ca         1 ZCT      -0.119600
     14 C8          -0.1970   -44.8890   -19.1020 ca         1 ZCT       0.136100
     15 O5           0.9930   -45.3950   -19.4390 oh         1 ZCT      -0.499100
     16 C9          -0.7650   -43.8630   -19.8780 ca         1 ZCT      -0.146000
     17 C14         -2.3220   -46.2860   -15.6390 cd         1 ZCT      -0.199900
     18 C13         -2.8780   -45.2210   -16.4790 c          1 ZCT       0.604900
     19 O7          -3.9520   -44.6990   -16.1700 o          1 ZCT      -0.574600
     20 C12         -2.1410   -44.7770   -17.6620 ca         1 ZCT      -0.230600
     21 C11         -2.6880   -43.7560   -18.4420 ca         1 ZCT       0.207100
     22 O6          -3.8370   -43.1540   -18.1690 oh         1 ZCT      -0.536100
     23 C10         -1.9810   -43.3080   -19.5760 cp         1 ZCT      -0.028500
     24 C26         -2.5440   -42.2220   -20.4040 cp         1 ZCT      -0.028500
     25 C27         -3.6730   -42.4710   -21.2090 ca         1 ZCT       0.207100
     26 O13         -4.1660   -43.7020   -21.1950 oh         1 ZCT      -0.536100
     27 C28         -4.1960   -41.4340   -21.9840 ca         1 ZCT      -0.230600
     28 C29         -5.3630   -41.7080   -22.8230 c          1 ZCT       0.604900
     29 O14         -5.8580   -42.8360   -22.8660 o          1 ZCT      -0.574600
     30 C25         -1.9680   -40.9780   -20.4100 ca         1 ZCT      -0.146000
     31 C24         -2.4810   -39.9220   -21.1850 ca         1 ZCT       0.136100
     32 O12         -1.8930   -38.7240   -21.1510 oh         1 ZCT      -0.499100
     33 C23         -3.6060   -40.1470   -21.9740 ca         1 ZCT      -0.119600
     34 C22         -4.1980   -39.0810   -22.8030 c          1 ZCT       0.566900
     35 O11         -3.7490   -37.9530   -22.8480 o          1 ZCT      -0.484100
     36 C21         -5.3950   -39.4040   -23.6260 cc         1 ZCT      -0.089400
     37 C30         -5.9390   -40.6310   -23.6350 cd         1 ZCT      -0.199900
     38 C31         -7.1150   -40.9610   -24.5220 c6         1 ZCT       0.225000
     39 C32         -8.4070   -41.1650   -23.7290 c3         1 ZCT      -0.113100
     40 O10         -7.2590   -39.9970   -25.5330 os         1 ZCT      -0.444500
     41 C20         -5.9410   -38.2990   -24.4710 c6         1 ZCT      -0.078700
     42 C19         -7.2960   -38.6610   -25.0580 c6         1 ZCT       0.182300
     43 C18         -7.6870   -37.7680   -26.2120 c3         1 ZCT      -0.208900
     44 C17         -9.1080   -38.0190   -26.7610 c          1 ZCT       0.724500
     45 O9          -9.9770   -38.3710   -25.9380 o          1 ZCT      -0.736500
     46 O8          -9.2730   -37.8120   -27.9790 o          1 ZCT      -0.736500
     47 H3          -2.2280   -49.1340   -14.5450 h1         1 ZCT       0.057200
     48 H15         -3.3880   -45.7640   -13.8820 h1         1 ZCT       0.073700
     49 H31         -6.8890   -41.8960   -25.0440 h1         1 ZCT       0.073700
     50 H19         -8.0550   -38.5580   -24.2730 h1         1 ZCT       0.057200
     51 H2          -1.5930   -49.4260   -12.1610 hc         1 ZCT       0.030450
     52 H2A         -0.1290   -48.5060   -12.4310 hc         1 ZCT       0.030450
     53 H16         -4.8520   -47.7610   -13.7970 hc         1 ZCT       0.044033
     54 H16A        -5.0430   -46.8860   -15.3110 hc         1 ZCT       0.044033
     55 H16B        -4.1280   -48.3880   -15.2840 hc         1 ZCT       0.044033
     56 H4           0.3480   -47.5270   -14.6040 hc         1 ZCT       0.080200
     57 H4A         -0.2100   -48.7550   -15.7130 hc         1 ZCT       0.080200
     58 HO5          1.3320   -44.9490   -20.2240 ho         1 ZCT       0.459000
     59 H9          -0.2290   -43.5050   -20.7510 ha         1 ZCT       0.116500
     60 HO6         -4.1990   -43.5700   -17.3510 ho         1 ZCT       0.518500
     61 HO13        -4.9370   -43.7180   -21.8110 ho         1 ZCT       0.518500
     62 H25         -1.0990   -40.8010   -19.7850 ha         1 ZCT       0.116500
     63 HO12        -1.1280   -38.7410   -20.5630 ho         1 ZCT       0.459000
     64 H32         -8.3220   -42.0210   -23.0620 hc         1 ZCT       0.044033
     65 H32A        -8.6610   -40.2960   -23.1220 hc         1 ZCT       0.044033
     66 H32B        -9.2310   -41.3560   -24.4160 hc         1 ZCT       0.044033
     67 H20         -6.0290   -37.3860   -23.8790 hc         1 ZCT       0.080200
     68 H20A        -5.2190   -38.0750   -25.2650 hc         1 ZCT       0.080200
     69 H18         -7.6380   -36.7300   -25.8620 hc         1 ZCT       0.030450
     70 H18A        -6.9470   -37.8500   -27.0130 hc         1 ZCT       0.030450
@<TRIPOS>BOND
     1     1     2 1   
     2     2     3 1   
     3     2     4 1   
     4     4     5 1   
     5     4    51 1   
     6     4    52 1   
     7     5     6 1   
     8     5     9 1   
     9     5    47 1   
    10     6     7 1   
    11     7     8 1   
    12     7    17 1   
    13     7    48 1   
    14     8    53 1   
    15     8    54 1   
    16     8    55 1   
    17     9    10 1   
    18     9    56 1   
    19     9    57 1   
    20    10    11 1   
    21    10    17 2   
    22    11    12 2   
    23    11    13 1   
    24    13    14 ar  
    25    13    20 ar  
    26    14    15 1   
    27    14    16 ar  
    28    15    58 1   
    29    16    23 ar  
    30    16    59 1   
    31    17    18 1   
    32    18    19 2   
    33    18    20 1   
    34    20    21 ar  
    35    21    22 1   
    36    21    23 ar  
    37    22    60 1   
    38    23    24 1   
    39    24    25 ar  
    40    24    30 ar  
    41    25    26 1   
    42    25    27 ar  
    43    26    61 1   
    44    27    28 1   
    45    27    33 ar  
    46    28    29 2   
    47    28    37 1   
    48    30    31 ar  
    49    30    62 1   
    50    31    32 1   
    51    31    33 ar  
    52    32    63 1   
    53    33    34 1   
    54    34    35 2   
    55    34    36 1   
    56    36    37 2   
    57    36    41 1   
    58    37    38 1   
    59    38    39 1   
    60    38    40 1   
    61    38    49 1   
    62    39    64 1   
    63    39    65 1   
    64    39    66 1   
    65    40    42 1   
    66    41    42 1   
    67    41    67 1   
    68    41    68 1   
    69    42    43 1   
    70    42    50 1   
    71    43    44 1   
    72    43    69 1   
    73    43    70 1   
    74    44    45 1   
    75    44    46 1   
@<TRIPOS>SUBSTRUCTURE
     1 ZCT         1 TEMP              0 ****  ****    0 ROOT
