@<TRIPOS>MOLECULE
ZCW
   23    24     1     0     0
SMALL
abcg2


@<TRIPOS>ATOM
      1 C1           0.4410    -0.1290    -0.1970 ca         1 ZCW      -0.096800
      2 C2           0.7120    -1.5010    -0.2570 ca         1 ZCW      -0.060000
      3 C3           2.0010    -1.9400    -0.0290 ca         1 ZCW      -0.142000
      4 C4           3.0340    -1.0330     0.2620 ca         1 ZCW      -0.091000
      5 C5           2.7980     0.3270     0.3270 ca         1 ZCW      -0.130000
      6 C6           1.4950     0.7660     0.0940 ca         1 ZCW      -0.047200
      7 N1           0.9730     2.0250     0.0850 na         1 ZCW      -0.224700
      8 C7          -0.3630     1.9580    -0.2010 cc         1 ZCW      -0.156100
      9 C8          -0.7430     0.6590    -0.3830 cd         1 ZCW      -0.143400
     10 C9          -2.1180     0.1530    -0.6760 c3         1 ZCW      -0.004200
     11 C10         -2.7710    -0.4500     0.5610 c3         1 ZCW       0.160600
     12 O1          -4.0530    -0.9250     0.2100 oh         1 ZCW      -0.666000
     13 H21         -0.0770    -2.2100    -0.4790 ha         1 ZCW       0.115000
     14 H31          2.2230    -2.9990    -0.0720 ha         1 ZCW       0.110000
     15 H41          4.0350    -1.4070     0.4390 ha         1 ZCW       0.109000
     16 H51          3.5960     1.0240     0.5480 ha         1 ZCW       0.112000
     17 H11N         1.4830     2.8750     0.2570 hn         1 ZCW       0.350000
     18 H71         -0.9570     2.8570    -0.2570 h4         1 ZCW       0.212000
     19 H91         -2.7410     0.9680    -1.0510 hc         1 ZCW       0.055700
     20 H92         -2.0780    -0.6060    -1.4640 hc         1 ZCW       0.055700
     21 H101        -2.1360    -1.2570     0.9500 h1         1 ZCW       0.020700
     22 H102        -2.8230     0.3180     1.3430 h1         1 ZCW       0.020700
     23 H1O         -4.4740    -1.2650     1.0050 ho         1 ZCW       0.441000
@<TRIPOS>BOND
     1     1     2 ar  
     2     1     6 ar  
     3     1     9 1   
     4     2     3 ar  
     5     2    13 1   
     6     3     4 ar  
     7     3    14 1   
     8     4     5 ar  
     9     4    15 1   
    10     5     6 ar  
    11     5    16 1   
    12     6     7 1   
    13     7     8 1   
    14     7    17 1   
    15     8     9 2   
    16     8    18 1   
    17     9    10 1   
    18    10    11 1   
    19    10    19 1   
    20    10    20 1   
    21    11    12 1   
    22    11    21 1   
    23    11    22 1   
    24    12    23 1   
@<TRIPOS>SUBSTRUCTURE
     1 ZCW         1 TEMP              0 ****  ****    0 ROOT
