@<TRIPOS>MOLECULE
ZCW
   23    24     1     0     0
SMALL
No Charge or Current Charge


@<TRIPOS>ATOM
      1 C1           0.4730    -0.1070    -0.1840 ca         1 ZCW      -0.096800
      2 C2           0.6790    -1.4920    -0.2420 ca         1 ZCW      -0.060000
      3 C3           1.9890    -1.9680    -0.0130 ca         1 ZCW      -0.142000
      4 C4           3.0440    -1.0630     0.2630 ca         1 ZCW      -0.091000
      5 C5           2.7980     0.3270     0.3130 ca         1 ZCW      -0.130000
      6 C6           1.4880     0.7680     0.0820 ca         1 ZCW      -0.047200
      7 N1           0.9910     2.0580     0.0730 na         1 ZCW      -0.224700
      8 C7          -0.3930     2.0400    -0.2060 cc         1 ZCW      -0.156100
      9 C8          -0.7150     0.6960    -0.3640 cd         1 ZCW      -0.143400
     10 C9          -2.0900     0.1600    -0.6760 c3         1 ZCW      -0.004200
     11 C10         -2.7710    -0.4720     0.5560 c3         1 ZCW       0.160600
     12 O1          -4.0720    -0.9620     0.2060 oh         1 ZCW      -0.666000
     13 H21         -0.1380    -2.1770    -0.4560 ha         1 ZCW       0.115000
     14 H31          2.1890    -3.0370    -0.0500 ha         1 ZCW       0.110000
     15 H41          4.0490    -1.4410     0.4380 ha         1 ZCW       0.109000
     16 H51          3.6000     1.0300     0.5240 ha         1 ZCW       0.112000
     17 H11N         1.5450     2.8930     0.2430 hn         1 ZCW       0.350000
     18 H71         -1.0030     2.9370    -0.2650 h4         1 ZCW       0.212000
     19 H91         -2.7270     0.9650    -1.0610 hc         1 ZCW       0.055700
     20 H92         -2.0230    -0.5910    -1.4720 hc         1 ZCW       0.055700
     21 H101        -2.1460    -1.2920     0.9350 h1         1 ZCW       0.020700
     22 H102        -2.8500     0.2840     1.3490 h1         1 ZCW       0.020700
     23 H1O         -4.4600    -1.3480     1.0230 ho         1 ZCW       0.441000
@<TRIPOS>BOND
     1     1     2 ar  
     2     1     6 ar  
     3     1     9 1   
     4     2     3 ar  
     5     2    13 1   
     6     3     4 ar  
     7     3    14 1   
     8     4     5 ar  
     9     4    15 1   
    10     5     6 ar  
    11     5    16 1   
    12     6     7 1   
    13     7     8 1   
    14     7    17 1   
    15     8     9 2   
    16     8    18 1   
    17     9    10 1   
    18    10    11 1   
    19    10    19 1   
    20    10    20 1   
    21    11    12 1   
    22    11    21 1   
    23    11    22 1   
    24    12    23 1   
@<TRIPOS>SUBSTRUCTURE
     1 ZCW         1 TEMP              0 ****  ****    0 ROOT
