@<TRIPOS>MOLECULE
ZCZ
   40    40     1     0     0
SMALL
abcg2


@<TRIPOS>ATOM
      1 C1          39.4730    34.5020    -6.9200 c6         1 ZCZ       0.374300
      2 C2          38.4720    33.3480    -6.9980 c6         1 ZCZ       0.159300
      3 C2M         36.9540    32.5530    -5.3290 c3         1 ZCZ       0.148900
      4 C3          37.9770    33.1970    -8.4300 c6         1 ZCZ       0.142300
      5 C4          37.4120    34.5250    -8.9410 c6         1 ZCZ       0.053700
      6 C5          38.4510    35.6480    -8.7800 c6         1 ZCZ       0.167300
      7 C6          37.8890    37.0160    -9.1000 c3         1 ZCZ      -0.090100
      8 C8          35.5480    34.2160   -12.2620 c3         1 ZCZ       0.088300
      9 C9          35.1110    35.3760   -13.1640 c3         1 ZCZ      -0.102400
     10 C10         36.1860    36.3940   -13.4860 c3         1 ZCZ       0.164600
     11 O1          40.6360    34.1140    -7.6170 oh         1 ZCZ      -0.748000
     12 O2          37.4110    33.6560    -6.1050 os         1 ZCZ      -0.448000
     13 O3          37.0050    32.1570    -8.4700 oh         1 ZCZ      -0.716000
     14 N4          37.0160    34.3680   -10.3280 ns         1 ZCZ      -0.498900
     15 O5          38.9200    35.7000    -7.4220 os         1 ZCZ      -0.473000
     16 O7          34.8720    35.1190   -10.1530 o          1 ZCZ      -0.596100
     17 O8          36.7060    33.5480   -12.7590 oh         1 ZCZ      -0.684000
     18 O10         36.4890    37.1510   -12.3100 oh         1 ZCZ      -0.661000
     19 H1          39.6960    34.7180    -5.8740 h2         1 ZCZ       0.078700
     20 HO1         41.3230    34.7730    -7.4520 ho         1 ZCZ       0.518000
     21 H2          38.9750    32.4300    -6.6840 h1         1 ZCZ       0.065700
     22 H2M1        36.1850    32.9370    -4.6600 h1         1 ZCZ       0.036033
     23 H2M2        36.5290    31.7700    -5.9600 h1         1 ZCZ       0.036033
     24 H2M3        37.7700    32.1320    -4.7320 h1         1 ZCZ       0.036033
     25 H3          38.8380    32.9250    -9.0530 h1         1 ZCZ       0.046700
     26 HO3         36.7240    32.0480    -9.3870 ho         1 ZCZ       0.508000
     27 H4          36.5190    34.7770    -8.3710 h1         1 ZCZ       0.116700
     28 H4N1        37.6830    33.9800   -10.9800 hn         1 ZCZ       0.328500
     29 H5          39.2980    35.4300    -9.4400 h1         1 ZCZ       0.035700
     30 H61         38.6650    37.7760    -8.9940 hc         1 ZCZ       0.052033
     31 H62         37.5140    37.0390   -10.1220 hc         1 ZCZ       0.052033
     32 H63         37.0690    37.2550    -8.4210 hc         1 ZCZ       0.052033
     33 H8          34.7130    33.5090   -12.2040 h1         1 ZCZ       0.058700
     34 H8O         36.5470    33.2910   -13.6760 ho         1 ZCZ       0.455000
     35 H91         34.2550    35.8730   -12.7010 hc         1 ZCZ       0.066200
     36 H92         34.7580    34.9460   -14.1050 hc         1 ZCZ       0.066200
     37 H101        35.8220    37.0570   -14.2780 h1         1 ZCZ       0.024200
     38 H102        37.0850    35.8910   -13.8550 h1         1 ZCZ       0.024200
     39 H10O        37.2610    37.7000   -12.4920 ho         1 ZCZ       0.442000
     40 C7          35.7900    34.6320   -10.8110 c          1 ZCZ       0.619100
@<TRIPOS>BOND
     1     1     2 1   
     2     1    11 1   
     3     1    15 1   
     4     1    19 1   
     5     2     4 1   
     6     2    12 1   
     7     2    21 1   
     8     3    12 1   
     9     3    22 1   
    10     3    23 1   
    11     3    24 1   
    12     4     5 1   
    13     4    13 1   
    14     4    25 1   
    15     5     6 1   
    16     5    14 1   
    17     5    27 1   
    18     6     7 1   
    19     6    15 1   
    20     6    29 1   
    21     7    30 1   
    22     7    31 1   
    23     7    32 1   
    24     8     9 1   
    25     8    17 1   
    26     8    33 1   
    27     8    40 1   
    28     9    10 1   
    29     9    35 1   
    30     9    36 1   
    31    10    18 1   
    32    10    37 1   
    33    10    38 1   
    34    11    20 1   
    35    13    26 1   
    36    14    28 1   
    37    14    40 1   
    38    16    40 2   
    39    17    34 1   
    40    18    39 1   
@<TRIPOS>SUBSTRUCTURE
     1 ZCZ         1 TEMP              0 ****  ****    0 ROOT
