@<TRIPOS>MOLECULE
ZCZ
   40    40     1     0     0
SMALL
No Charge or Current Charge


@<TRIPOS>ATOM
      1 C1          39.5960    34.7070    -6.9540 c6         1 ZCZ       0.374300
      2 C2          38.7370    33.3990    -6.9990 c6         1 ZCZ       0.159300
      3 C2M         37.0320    32.2240    -5.6040 c3         1 ZCZ       0.148900
      4 C3          38.1290    33.2470    -8.4390 c6         1 ZCZ       0.142300
      5 C4          37.3030    34.5130    -8.8230 c6         1 ZCZ       0.053700
      6 C5          38.2180    35.7750    -8.6810 c6         1 ZCZ       0.167300
      7 C6          37.4570    37.1120    -8.8580 c3         1 ZCZ      -0.090100
      8 C8          35.1790    34.4120   -12.1180 c3         1 ZCZ       0.088300
      9 C9          35.3220    35.5480   -13.1680 c3         1 ZCZ      -0.102400
     10 C10         36.7650    35.9560   -13.5460 c3         1 ZCZ       0.164600
     11 O1          40.7280    34.6590    -7.8220 oh         1 ZCZ      -0.748000
     12 O2          37.7410    33.4350    -5.9290 os         1 ZCZ      -0.448000
     13 O3          37.3350    32.0520    -8.6030 oh         1 ZCZ      -0.716000
     14 N4          36.7520    34.3560   -10.1930 ns         1 ZCZ      -0.498900
     15 O5          38.8080    35.8430    -7.3580 os         1 ZCZ      -0.473000
     16 O7          34.8000    35.5050    -9.9480 o          1 ZCZ      -0.596100
     17 O8          35.9090    33.2350   -12.5640 oh         1 ZCZ      -0.684000
     18 O10         37.4010    36.6300   -12.4590 oh         1 ZCZ      -0.661000
     19 H1          39.9370    34.8590    -5.9160 h2         1 ZCZ       0.078700
     20 HO1         41.1020    35.5680    -7.7900 ho         1 ZCZ       0.518000
     21 H2          39.4110    32.5510    -6.8090 h1         1 ZCZ       0.065700
     22 H2M1        36.5250    32.3330    -4.6370 h1         1 ZCZ       0.036033
     23 H2M2        36.2620    31.9970    -6.3510 h1         1 ZCZ       0.036033
     24 H2M3        37.7190    31.3710    -5.5320 h1         1 ZCZ       0.036033
     25 H3          38.9740    33.1910    -9.1420 h1         1 ZCZ       0.046700
     26 HO3         36.7430    32.2120    -9.3730 ho         1 ZCZ       0.508000
     27 H4          36.4690    34.6120    -8.1120 h1         1 ZCZ       0.116700
     28 H4N1        37.2900    33.8510   -10.8900 hn         1 ZCZ       0.328500
     29 H5          39.0200    35.7350    -9.4340 h1         1 ZCZ       0.035700
     30 H61         38.1240    37.9670    -8.6940 hc         1 ZCZ       0.052033
     31 H62         37.0450    37.2120    -9.8660 hc         1 ZCZ       0.052033
     32 H63         36.6260    37.1930    -8.1470 hc         1 ZCZ       0.052033
     33 H8          34.1110    34.1630   -12.0620 h1         1 ZCZ       0.058700
     34 H8O         35.4910    32.9270   -13.4000 ho         1 ZCZ       0.455000
     35 H91         34.7780    36.4340   -12.8170 hc         1 ZCZ       0.066200
     36 H92         34.8140    35.2290   -14.0860 hc         1 ZCZ       0.066200
     37 H101        36.7190    36.6230   -14.4170 h1         1 ZCZ       0.024200
     38 H102        37.3410    35.0700   -13.8430 h1         1 ZCZ       0.024200
     39 H10O        38.2820    36.9210   -12.7820 ho         1 ZCZ       0.442000
     40 C7          35.5530    34.8520   -10.6610 c          1 ZCZ       0.619100
@<TRIPOS>BOND
     1     1     2 1   
     2     1    11 1   
     3     1    15 1   
     4     1    19 1   
     5     2     4 1   
     6     2    12 1   
     7     2    21 1   
     8     3    12 1   
     9     3    22 1   
    10     3    23 1   
    11     3    24 1   
    12     4     5 1   
    13     4    13 1   
    14     4    25 1   
    15     5     6 1   
    16     5    14 1   
    17     5    27 1   
    18     6     7 1   
    19     6    15 1   
    20     6    29 1   
    21     7    30 1   
    22     7    31 1   
    23     7    32 1   
    24     8     9 1   
    25     8    17 1   
    26     8    33 1   
    27     8    40 1   
    28     9    10 1   
    29     9    35 1   
    30     9    36 1   
    31    10    18 1   
    32    10    37 1   
    33    10    38 1   
    34    11    20 1   
    35    13    26 1   
    36    14    28 1   
    37    14    40 1   
    38    16    40 2   
    39    17    34 1   
    40    18    39 1   
@<TRIPOS>SUBSTRUCTURE
     1 ZCZ         1 TEMP              0 ****  ****    0 ROOT
