@<TRIPOS>MOLECULE
ZD0
   40    40     1     0     0
SMALL
No Charge or Current Charge


@<TRIPOS>ATOM
      1 C1          42.1460    36.8440    -7.9470 c6         1 ZD0       0.395300
      2 C1M         43.6310    38.1230    -6.3380 c3         1 ZD0       0.144900
      3 C2          41.5780    35.9010    -6.8170 c6         1 ZD0       0.126300
      4 C3          42.6990    35.0050    -6.1970 c6         1 ZD0       0.120300
      5 C4          43.5490    34.3010    -7.2970 c6         1 ZD0       0.037700
      6 C5          44.0840    35.3620    -8.3100 c6         1 ZD0       0.168300
      7 C6          44.8340    34.7330    -9.5110 c3         1 ZD0      -0.086100
      8 C8          46.3640    31.7510    -6.3470 c3         1 ZD0       0.090300
      9 C9          47.6640    32.0340    -7.1410 c3         1 ZD0      -0.071400
     10 C10         48.9120    31.2990    -6.6080 c3         1 ZD0       0.164600
     11 N4          44.6510    33.5210    -6.6820 ns         1 ZD0      -0.514900
     12 O1          42.7810    38.0810    -7.5020 os         1 ZD0      -0.468000
     13 O2          40.5730    34.9970    -7.3240 oh         1 ZD0      -0.710000
     14 O3          42.0890    34.0180    -5.3430 oh         1 ZD0      -0.662000
     15 O5          42.9940    36.1200    -8.8760 os         1 ZD0      -0.459000
     16 O7          44.5700    31.6770    -8.0160 o          1 ZD0      -0.583100
     17 O8          46.4880    32.3040    -5.0070 oh         1 ZD0      -0.666000
     18 O10         48.7660    29.8830    -6.7840 oh         1 ZD0      -0.666000
     19 H101        49.7940    31.6560    -7.1570 h1         1 ZD0       0.026700
     20 H102        49.0610    31.5430    -5.5470 h1         1 ZD0       0.026700
     21 H10O        49.5850    29.4660    -6.4340 ho         1 ZD0       0.445000
     22 H1          41.2620    37.1610    -8.5220 h2         1 ZD0       0.125700
     23 H1M1        44.0030    39.1440    -6.1880 h1         1 ZD0       0.030367
     24 H1M2        43.0760    37.8430    -5.4340 h1         1 ZD0       0.030367
     25 H1M3        44.7840    36.0420    -7.8140 h1         1 ZD0       0.028700
     26 H2          41.1460    36.5280    -6.0230 h1         1 ZD0       0.057700
     27 HO2         40.6190    34.2410    -6.6850 ho         1 ZD0       0.528000
     28 H3          43.3700    35.6310    -5.5950 h1         1 ZD0       0.033700
     29 HO3         42.8140    33.4280    -5.0360 ho         1 ZD0       0.458000
     30 H4          42.8950    33.6100    -7.8510 h1         1 ZD0       0.118700
     31 H4N         45.1870    33.9400    -5.9280 hn         1 ZD0       0.322500
     32 H5          44.5050    37.4720    -6.4350 h1         1 ZD0       0.030367
     33 H61         45.1180    35.5000   -10.2410 hc         1 ZD0       0.049700
     34 H62         45.7550    34.2350    -9.1890 hc         1 ZD0       0.049700
     35 H63         44.2120    33.9910   -10.0260 hc         1 ZD0       0.049700
     36 H8          46.2270    30.6620    -6.2940 h1         1 ZD0       0.082700
     37 H8O         45.8590    31.8190    -4.4250 ho         1 ZD0       0.449000
     38 H91         47.5160    31.7520    -8.1910 hc         1 ZD0       0.066200
     39 H92         47.8590    33.1140    -7.1350 hc         1 ZD0       0.066200
     40 C7          45.1200    32.2970    -7.1160 c          1 ZD0       0.563100
@<TRIPOS>BOND
     1     1     3 1   
     2     1    12 1   
     3     1    15 1   
     4     1    22 1   
     5     2    12 1   
     6     2    23 1   
     7     2    24 1   
     8     2    32 1   
     9     3     4 1   
    10     3    13 1   
    11     3    26 1   
    12     4     5 1   
    13     4    14 1   
    14     4    28 1   
    15     5     6 1   
    16     5    11 1   
    17     5    30 1   
    18     6     7 1   
    19     6    15 1   
    20     6    25 1   
    21     7    33 1   
    22     7    34 1   
    23     7    35 1   
    24     8     9 1   
    25     8    17 1   
    26     8    36 1   
    27     8    40 1   
    28     9    10 1   
    29     9    38 1   
    30     9    39 1   
    31    10    18 1   
    32    10    19 1   
    33    10    20 1   
    34    11    31 1   
    35    11    40 1   
    36    13    27 1   
    37    14    29 1   
    38    16    40 2   
    39    17    37 1   
    40    18    21 1   
@<TRIPOS>SUBSTRUCTURE
     1 ZD0         1 TEMP              0 ****  ****    0 ROOT
