@<TRIPOS>MOLECULE
ZD0
   40    40     1     0     0
SMALL
bcc


@<TRIPOS>ATOM
      1 C1          42.1590    36.7390    -7.9120 c6         1 ZD0       0.348900
      2 C1M         43.2740    38.1760    -6.2750 c3         1 ZD0       0.121700
      3 C2          41.6760    35.7460    -6.8430 c6         1 ZD0       0.103100
      4 C3          42.8180    34.9590    -6.2050 c6         1 ZD0       0.097100
      5 C4          43.7050    34.3530    -7.2910 c6         1 ZD0       0.037700
      6 C5          44.2240    35.4650    -8.2090 c6         1 ZD0       0.145100
      7 C6          45.0220    34.9320    -9.3810 c3         1 ZD0      -0.086100
      8 C8          46.3770    31.8240    -6.3040 c3         1 ZD0       0.067100
      9 C9          47.5050    31.7460    -7.3300 c3         1 ZD0      -0.071400
     10 C10         48.7720    31.1040    -6.7980 c3         1 ZD0       0.141400
     11 N4          44.7900    33.6220    -6.6820 ns         1 ZD0      -0.581900
     12 O1          42.5010    38.0080    -7.4450 os         1 ZD0      -0.421600
     13 O2          40.7940    34.8770    -7.5140 oh         1 ZD0      -0.587800
     14 O3          42.2340    33.9800    -5.3820 oh         1 ZD0      -0.599800
     15 O5          43.1290    36.1880    -8.7570 os         1 ZD0      -0.412600
     16 O7          44.5100    31.6620    -7.7910 o          1 ZD0      -0.583100
     17 O8          46.8010    32.6320    -5.2330 oh         1 ZD0      -0.603800
     18 O10         48.4850    29.7760    -6.4170 oh         1 ZD0      -0.603800
     19 H101        49.5310    31.1400    -7.5890 h1         1 ZD0       0.026700
     20 H102        49.1610    31.6910    -5.9580 h1         1 ZD0       0.026700
     21 H10O        49.2810    29.3910    -6.0410 ho         1 ZD0       0.406000
     22 H1          41.3080    36.9280    -8.5720 h2         1 ZD0       0.125700
     23 H1M1        43.4220    39.2480    -6.1530 h1         1 ZD0       0.030367
     24 H1M2        42.7670    37.8100    -5.3780 h1         1 ZD0       0.030367
     25 H1M3        44.8760    36.1300    -7.6240 h1         1 ZD0       0.028700
     26 H2          41.1460    36.3070    -6.0610 h1         1 ZD0       0.057700
     27 HO2         40.5620    34.1650    -6.9070 ho         1 ZD0       0.429000
     28 H3          43.4330    35.6430    -5.6040 h1         1 ZD0       0.033700
     29 HO3         42.9310    33.4000    -5.0560 ho         1 ZD0       0.419000
     30 H4          43.1230    33.6450    -7.8860 h1         1 ZD0       0.118700
     31 H4N         45.4080    34.1130    -6.0510 hn         1 ZD0       0.322500
     32 H5          44.2600    37.7100    -6.3350 h1         1 ZD0       0.030367
     33 H61         45.3580    35.7520   -10.0160 hc         1 ZD0       0.049700
     34 H62         45.9100    34.4020    -9.0380 hc         1 ZD0       0.049700
     35 H63         44.4280    34.2460    -9.9860 hc         1 ZD0       0.049700
     36 H8          46.1320    30.8120    -5.9650 h1         1 ZD0       0.082700
     37 H8O         46.2970    32.4010    -4.4470 ho         1 ZD0       0.410000
     38 H91         47.1540    31.1920    -8.2030 hc         1 ZD0       0.066200
     39 H92         47.7520    32.7550    -7.6780 hc         1 ZD0       0.066200
     40 C7          45.1240    32.3580    -6.9970 c          1 ZD0       0.630100
@<TRIPOS>BOND
     1     1     3 1   
     2     1    12 1   
     3     1    15 1   
     4     1    22 1   
     5     2    12 1   
     6     2    23 1   
     7     2    24 1   
     8     2    32 1   
     9     3     4 1   
    10     3    13 1   
    11     3    26 1   
    12     4     5 1   
    13     4    14 1   
    14     4    28 1   
    15     5     6 1   
    16     5    11 1   
    17     5    30 1   
    18     6     7 1   
    19     6    15 1   
    20     6    25 1   
    21     7    33 1   
    22     7    34 1   
    23     7    35 1   
    24     8     9 1   
    25     8    17 1   
    26     8    36 1   
    27     8    40 1   
    28     9    10 1   
    29     9    38 1   
    30     9    39 1   
    31    10    18 1   
    32    10    19 1   
    33    10    20 1   
    34    11    31 1   
    35    11    40 1   
    36    13    27 1   
    37    14    29 1   
    38    16    40 2   
    39    17    37 1   
    40    18    21 1   
@<TRIPOS>SUBSTRUCTURE
     1 ZD0         1 TEMP              0 ****  ****    0 ROOT
