@<TRIPOS>MOLECULE
ZD1
   46    47     1     0     0
SMALL
No Charge or Current Charge


@<TRIPOS>ATOM
      1 C02         23.4900   -30.5390   277.9310 c6         1 ZD1       0.161700
      2 C03         24.9500   -30.3990   277.5240 c2         1 ZD1      -0.203200
      3 C04         25.3800   -30.1480   276.2690 c2         1 ZD1      -0.076400
      4 C05         26.8470   -30.0000   275.9110 c3         1 ZD1       0.200800
      5 C07         24.4230   -30.0230   275.0840 c6         1 ZD1       0.217500
      6 C09         23.8810   -31.2930   273.0640 c6         1 ZD1       0.349300
      7 C10         23.1800   -32.6590   272.7660 c6         1 ZD1       0.122300
      8 C12         24.2470   -33.7900   272.7200 c6         1 ZD1       0.137300
      9 C14         25.3690   -33.4390   271.7000 c6         1 ZD1       0.150300
     10 C16         25.9820   -32.0480   272.0640 c6         1 ZD1       0.179300
     11 C17         27.0640   -31.5740   271.0350 c3         1 ZD1       0.171600
     12 C20         22.9800   -29.6230   275.5550 c6         1 ZD1       0.143300
     13 C22         22.5060   -30.5590   276.7150 c6         1 ZD1       0.153300
     14 N01         23.3290   -31.7930   278.7150 n8         1 ZD1      -1.021200
     15 O06         27.2860   -28.6630   276.1770 oh         1 ZD1      -0.657000
     16 O08         24.4290   -31.2930   274.3940 os         1 ZD1      -0.449000
     17 O11         22.1570   -32.9790   273.7420 oh         1 ZD1      -0.700000
     18 O13         23.6310   -35.0480   272.3820 oh         1 ZD1      -0.672000
     19 O15         26.3550   -34.4930   271.7000 oh         1 ZD1      -0.723000
     20 O18         26.5400   -31.2980   269.7180 oh         1 ZD1      -0.711000
     21 O19         24.9380   -31.0350   272.1170 os         1 ZD1      -0.458000
     22 O21         22.9470   -28.2380   275.9750 oh         1 ZD1      -0.716000
     23 O23         22.3960   -31.9300   276.3210 oh         1 ZD1      -0.645000
     24 H1          23.2330   -29.6910   278.5860 h1         1 ZD1       0.047700
     25 H2          25.6740   -30.4800   278.3340 ha         1 ZD1       0.172000
     26 H3          27.0010   -30.2470   274.8520 h1         1 ZD1       0.031700
     27 H4          27.4370   -30.7160   276.4990 h1         1 ZD1       0.031700
     28 H5          24.8000   -29.2490   274.3990 h1         1 ZD1       0.087700
     29 H6          23.1240   -30.5010   272.9680 h2         1 ZD1       0.067700
     30 H7          22.7220   -32.5810   271.7690 h1         1 ZD1       0.055700
     31 H8          24.7060   -33.8610   273.7180 h1         1 ZD1       0.067700
     32 H9          24.9120   -33.3570   270.7020 h1         1 ZD1       0.067700
     33 H10         26.4640   -32.1140   273.0510 h1         1 ZD1       0.051700
     34 H11         27.8490   -32.3400   270.9790 h1         1 ZD1       0.032700
     35 H12         27.5330   -30.6690   271.4450 h1         1 ZD1       0.032700
     36 H13         22.2830   -29.7500   274.7150 h1         1 ZD1       0.046700
     37 H14         21.5220   -30.2170   277.0640 h1         1 ZD1       0.019700
     38 H15         24.0160   -31.7910   279.4800 hn         1 ZD1       0.407000
     39 H16         22.4330   -31.7510   279.2220 hn         1 ZD1       0.407000
     40 H18         28.2430   -28.6290   275.9600 ho         1 ZD1       0.441000
     41 H19         22.4240   -32.5610   274.6090 ho         1 ZD1       0.509000
     42 H20         22.7530   -35.0280   272.8300 ho         1 ZD1       0.464000
     43 H21         25.8270   -35.3250   271.7730 ho         1 ZD1       0.524000
     44 H22         27.2870   -30.9480   269.1790 ho         1 ZD1       0.502000
     45 H23         21.9990   -27.9850   276.0730 ho         1 ZD1       0.503000
     46 H24         22.7900   -32.3500   277.1370 ho         1 ZD1       0.476000
@<TRIPOS>BOND
     1     1     2 1   
     2     1    13 1   
     3     1    14 1   
     4     1    24 1   
     5     2     3 2   
     6     2    25 1   
     7     3     4 1   
     8     3     5 1   
     9     4    15 1   
    10     4    26 1   
    11     4    27 1   
    12     5    12 1   
    13     5    16 1   
    14     5    28 1   
    15     6     7 1   
    16     6    16 1   
    17     6    21 1   
    18     6    29 1   
    19     7     8 1   
    20     7    17 1   
    21     7    30 1   
    22     8     9 1   
    23     8    18 1   
    24     8    31 1   
    25     9    10 1   
    26     9    19 1   
    27     9    32 1   
    28    10    11 1   
    29    10    21 1   
    30    10    33 1   
    31    11    20 1   
    32    11    34 1   
    33    11    35 1   
    34    12    13 1   
    35    12    22 1   
    36    12    36 1   
    37    13    23 1   
    38    13    37 1   
    39    14    38 1   
    40    14    39 1   
    41    15    40 1   
    42    17    41 1   
    43    18    42 1   
    44    19    43 1   
    45    20    44 1   
    46    22    45 1   
    47    23    46 1   
@<TRIPOS>SUBSTRUCTURE
     1 ZD1         1 TEMP              0 ****  ****    0 ROOT
