@<TRIPOS>MOLECULE
ZD1
   46    47     1     0     0
SMALL
bcc


@<TRIPOS>ATOM
      1 C02         23.5530   -30.0610   278.0480 c6         1 ZD1       0.161700
      2 C03         24.9320   -30.3280   277.5260 c2         1 ZD1      -0.153200
      3 C04         25.2560   -30.4600   276.2430 c2         1 ZD1      -0.076400
      4 C05         26.6620   -30.7910   275.8360 c3         1 ZD1       0.177600
      5 C07         24.2440   -30.3060   275.1400 c6         1 ZD1       0.194300
      6 C09         23.7950   -31.4480   273.1070 c6         1 ZD1       0.302900
      7 C10         23.3100   -32.8230   272.6390 c6         1 ZD1       0.099100
      8 C12         24.4760   -33.7990   272.5700 c6         1 ZD1       0.114100
      9 C14         25.5680   -33.2160   271.6800 c6         1 ZD1       0.127100
     10 C16         25.9700   -31.8380   272.2020 c6         1 ZD1       0.156100
     11 C17         27.0000   -31.1300   271.3500 c3         1 ZD1       0.148400
     12 C20         22.8690   -29.8410   275.6350 c6         1 ZD1       0.120100
     13 C22         22.4950   -30.4180   276.9980 c6         1 ZD1       0.130100
     14 N01         23.3020   -30.8950   279.2220 n8         1 ZD1      -0.910800
     15 O06         27.1320   -29.8310   274.9120 oh         1 ZD1      -0.594800
     16 O08         24.1690   -31.5420   274.4440 os         1 ZD1      -0.402600
     17 O11         22.3270   -33.3630   273.4830 oh         1 ZD1      -0.577800
     18 O13         24.0920   -35.0340   272.0090 oh         1 ZD1      -0.609800
     19 O15         26.7210   -34.0220   271.6760 oh         1 ZD1      -0.600800
     20 O18         26.5210   -30.9830   270.0350 oh         1 ZD1      -0.588800
     21 O19         24.8320   -30.9940   272.2850 os         1 ZD1      -0.411600
     22 O21         22.9320   -28.4330   275.7050 oh         1 ZD1      -0.593800
     23 O23         22.3660   -31.8090   276.9010 oh         1 ZD1      -0.582800
     24 H1          23.4750   -28.9900   278.2780 h1         1 ZD1       0.047700
     25 H2          25.7200   -30.4000   278.2730 ha         1 ZD1       0.122000
     26 H3          26.6750   -31.7970   275.3980 h1         1 ZD1       0.031700
     27 H4          27.2940   -30.8290   276.7320 h1         1 ZD1       0.031700
     28 H5          24.6110   -29.5270   274.4600 h1         1 ZD1       0.087700
     29 H6          22.9930   -30.7100   272.9740 h2         1 ZD1       0.067700
     30 H7          22.9230   -32.6880   271.6180 h1         1 ZD1       0.055700
     31 H8          24.8890   -33.9450   273.5790 h1         1 ZD1       0.067700
     32 H9          25.1570   -33.1090   270.6650 h1         1 ZD1       0.067700
     33 H10         26.4260   -31.9700   273.1920 h1         1 ZD1       0.051700
     34 H11         27.9300   -31.7090   271.3880 h1         1 ZD1       0.032700
     35 H12         27.2150   -30.1590   271.8170 h1         1 ZD1       0.032700
     36 H13         22.1100   -30.1580   274.9050 h1         1 ZD1       0.046700
     37 H14         21.5380   -29.9630   277.3090 h1         1 ZD1       0.019700
     38 H15         24.1030   -30.8920   279.8400 hn         1 ZD1       0.351800
     39 H16         22.5300   -30.5140   279.7560 hn         1 ZD1       0.351800
     40 H18         27.8900   -30.2030   274.4500 ho         1 ZD1       0.402000
     41 H19         21.5000   -32.8920   273.3410 ho         1 ZD1       0.410000
     42 H20         23.4750   -35.4630   272.6100 ho         1 ZD1       0.425000
     43 H21         26.4710   -34.8970   271.3630 ho         1 ZD1       0.425000
     44 H22         27.2180   -30.5920   269.5030 ho         1 ZD1       0.403000
     45 H23         22.0890   -28.1020   276.0310 ho         1 ZD1       0.404000
     46 H24         22.5820   -32.1290   277.7940 ho         1 ZD1       0.437000
@<TRIPOS>BOND
     1     1     2 1   
     2     1    13 1   
     3     1    14 1   
     4     1    24 1   
     5     2     3 2   
     6     2    25 1   
     7     3     4 1   
     8     3     5 1   
     9     4    15 1   
    10     4    26 1   
    11     4    27 1   
    12     5    12 1   
    13     5    16 1   
    14     5    28 1   
    15     6     7 1   
    16     6    16 1   
    17     6    21 1   
    18     6    29 1   
    19     7     8 1   
    20     7    17 1   
    21     7    30 1   
    22     8     9 1   
    23     8    18 1   
    24     8    31 1   
    25     9    10 1   
    26     9    19 1   
    27     9    32 1   
    28    10    11 1   
    29    10    21 1   
    30    10    33 1   
    31    11    20 1   
    32    11    34 1   
    33    11    35 1   
    34    12    13 1   
    35    12    22 1   
    36    12    36 1   
    37    13    23 1   
    38    13    37 1   
    39    14    38 1   
    40    14    39 1   
    41    15    40 1   
    42    17    41 1   
    43    18    42 1   
    44    19    43 1   
    45    20    44 1   
    46    22    45 1   
    47    23    46 1   
@<TRIPOS>SUBSTRUCTURE
     1 ZD1         1 TEMP              0 ****  ****    0 ROOT
