@<TRIPOS>MOLECULE
ZD2
   27    28     1     0     0
SMALL
bcc


@<TRIPOS>ATOM
      1 O           -5.0110    -0.0430    -0.8430 o          1 ZD2      -0.820800
      2 C4          -4.0060     0.6260    -0.5110 c          1 ZD2       0.904600
      3 OXT         -3.6770     1.7520    -0.9130 o          1 ZD2      -0.820800
      4 C3          -3.0850    -0.0680     0.5190 c3         1 ZD2      -0.005900
      5 O3          -3.6370    -1.3100     0.8790 oh         1 ZD2      -0.657800
      6 C2          -1.6760    -0.2280    -0.0430 c3         1 ZD2      -0.091400
      7 C1          -0.7450    -0.9110     0.9490 c3         1 ZD2       0.047300
      8 N9           0.6100    -1.0140     0.4410 na         1 ZD2      -0.229000
      9 C7           1.5500    -0.0290     0.4370 ca         1 ZD2       0.445800
     10 C5           2.6480    -0.5710    -0.2150 ca         1 ZD2      -0.231200
     11 N7           2.3920    -1.8580    -0.6090 nc         1 ZD2      -0.583100
     12 C8           1.1730    -2.0760    -0.2030 cd         1 ZD2       0.407700
     13 N3           1.4600     1.1980     0.9490 nb         1 ZD2      -0.715000
     14 C9           2.5730     1.8850     0.7700 ca         1 ZD2       0.690900
     15 N1           3.6960     1.5000     0.1660 nb         1 ZD2      -0.842000
     16 C6           3.7720     0.2660    -0.3430 ca         1 ZD2       0.767200
     17 N6           4.9020    -0.1290    -0.9360 nv         1 ZD2      -0.965500
     18 H2          -3.0240     0.5810     1.4070 h1         1 ZD2       0.032700
     19 H3          -4.4250    -1.3550     0.3040 ho         1 ZD2       0.438000
     20 H4          -1.7090    -0.8110    -0.9700 hc         1 ZD2       0.056700
     21 H5          -1.2800     0.7580    -0.2930 hc         1 ZD2       0.056700
     22 H6          -0.7080    -0.3540     1.8860 h1         1 ZD2       0.063700
     23 H7          -1.0890    -1.9180     1.1800 h1         1 ZD2       0.063700
     24 H8           0.6270    -2.9980    -0.3390 h5         1 ZD2       0.064800
     25 H9           2.5800     2.8970     1.1620 h5         1 ZD2       0.039100
     26 H10          4.9520    -1.0150    -1.4070 hn         1 ZD2       0.440800
     27 H11          5.6460     0.5290    -1.0880 hn         1 ZD2       0.440800
@<TRIPOS>BOND
     1     1     2 1   
     2     2     3 1   
     3     2     4 1   
     4     4     5 1   
     5     4     6 1   
     6     4    18 1   
     7     5    19 1   
     8     6     7 1   
     9     6    20 1   
    10     6    21 1   
    11     7     8 1   
    12     7    22 1   
    13     7    23 1   
    14     8     9 1   
    15     8    12 1   
    16     9    10 ar  
    17     9    13 ar  
    18    10    11 1   
    19    10    16 ar  
    20    11    12 2   
    21    12    24 1   
    22    13    14 ar  
    23    14    15 ar  
    24    14    25 1   
    25    15    16 ar  
    26    16    17 1   
    27    17    26 1   
    28    17    27 1   
@<TRIPOS>SUBSTRUCTURE
     1 ZD2         1 TEMP              0 ****  ****    0 ROOT
