@<TRIPOS>MOLECULE
ZD2
   27    28     1     0     0
SMALL
No Charge or Current Charge


@<TRIPOS>ATOM
      1 O           -4.9310     0.0850    -1.1010 o          1 ZD2      -0.715500
      2 C4          -4.0710     0.7120    -0.4920 c          1 ZD2       0.694000
      3 OXT         -3.9600     1.9290    -0.5430 o          1 ZD2      -0.715500
      4 C3          -3.1630    -0.0900     0.5130 c3         1 ZD2       0.017300
      5 O3          -3.7250    -1.3900     0.8330 oh         1 ZD2      -0.720000
      6 C2          -1.7300    -0.2750    -0.0460 c3         1 ZD2      -0.091400
      7 C1          -0.7440    -0.8920     0.9700 c3         1 ZD2       0.076600
      8 N9           0.6180    -1.0240     0.4320 na         1 ZD2      -0.258300
      9 C7           1.5660    -0.0350     0.4360 ca         1 ZD2       0.117500
     10 C5           2.6830    -0.5680    -0.1620 ca         1 ZD2      -0.100600
     11 N7           2.4980    -1.8910    -0.5680 nc         1 ZD2      -0.583100
     12 C8           1.2270    -2.1280    -0.1870 cd         1 ZD2       0.407700
     13 N3           1.5330     1.2330     0.8930 nb         1 ZD2      -0.189000
     14 C9           2.6690     1.9510     0.7270 ca         1 ZD2       0.164900
     15 N1           3.8200     1.5240     0.1540 nb         1 ZD2      -0.316000
     16 C6           3.8220     0.2570    -0.2880 ca         1 ZD2       0.438900
     17 N6           4.9760    -0.1690    -0.8660 nv         1 ZD2      -1.075900
     18 H2          -3.0950     0.5150     1.4270 h1         1 ZD2       0.032700
     19 H3          -4.4700    -1.5040     0.1920 ho         1 ZD2       0.477000
     20 H4          -1.7660    -0.8990    -0.9470 hc         1 ZD2       0.056700
     21 H5          -1.3440     0.7040    -0.3560 hc         1 ZD2       0.056700
     22 H6          -0.7100    -0.2670     1.8720 h1         1 ZD2       0.063700
     23 H7          -1.0990    -1.8870     1.2690 h1         1 ZD2       0.063700
     24 H8           0.6880    -3.0590    -0.3250 h5         1 ZD2       0.064800
     25 H9           2.6550     2.9770     1.0900 h5         1 ZD2       0.039100
     26 H10          4.9250    -1.0350    -1.3970 hn         1 ZD2       0.496000
     27 H11          5.6360     0.5310    -1.1960 hn         1 ZD2       0.496000
@<TRIPOS>BOND
     1     1     2 1   
     2     2     3 1   
     3     2     4 1   
     4     4     5 1   
     5     4     6 1   
     6     4    18 1   
     7     5    19 1   
     8     6     7 1   
     9     6    20 1   
    10     6    21 1   
    11     7     8 1   
    12     7    22 1   
    13     7    23 1   
    14     8     9 1   
    15     8    12 1   
    16     9    10 ar  
    17     9    13 ar  
    18    10    11 1   
    19    10    16 ar  
    20    11    12 2   
    21    12    24 1   
    22    13    14 ar  
    23    14    15 ar  
    24    14    25 1   
    25    15    16 ar  
    26    16    17 1   
    27    17    26 1   
    28    17    27 1   
@<TRIPOS>SUBSTRUCTURE
     1 ZD2         1 TEMP              0 ****  ****    0 ROOT
