@<TRIPOS>MOLECULE
ZD3
   41    43     1     0     0
SMALL
No Charge or Current Charge


@<TRIPOS>ATOM
      1 C15          1.7210     1.3020   -24.3600 c3         1 ZD3       0.261700
      2 C12         -2.4000     7.2400   -23.2200 c6         1 ZD3       0.147800
      3 C13         -1.6020     3.6360   -25.8210 ca         1 ZD3      -0.073000
      4 C14         -2.6960     4.3580   -26.3560 ca         1 ZD3      -0.092000
      5 C11         -1.3440     6.2750   -23.8470 c6         1 ZD3       0.152800
      6 C9          -1.1370     3.8610   -24.5050 ca         1 ZD3       0.336000
      7 C8          -0.0610     3.0980   -24.0390 ca         1 ZD3      -0.210000
      8 C7           0.5300     2.1380   -24.8730 ca         1 ZD3       0.282300
      9 C4          -1.4100     2.4260   -27.9180 ca         1 ZD3      -0.079000
     10 C5          -0.9540     2.6530   -26.6070 ca         1 ZD3       0.275000
     11 C3          -2.4900     3.1500   -28.4490 ca         1 ZD3      -0.097000
     12 C2          -3.1420     4.1180   -27.6670 ca         1 ZD3      -0.070300
     13 C1          -4.3140     4.9040   -28.2340 c3         1 ZD3      -0.049800
     14 CB          -2.0680     4.4990   -22.2470 c6         1 ZD3       0.149800
     15 CA          -3.1250     5.4850   -21.6410 c6         1 ZD3       0.157500
     16 C           -3.4140     5.1270   -20.1430 c3         1 ZD3       0.168600
     17 N6           0.0850     1.9280   -26.1370 nb         1 ZD3      -0.634000
     18 N           -2.7000     6.9180   -21.7950 n7         1 ZD3      -0.828400
     19 N10         -1.7130     4.8390   -23.6600 nh         1 ZD3      -0.784400
     20 O           -4.4920     5.8910   -19.5730 oh         1 ZD3      -0.638000
     21 F16          2.7840     2.0840   -24.0580 f          1 ZD3      -0.107000
     22 F17          1.4030     0.6250   -23.2310 f          1 ZD3      -0.107000
     23 F18          2.1580     0.3800   -25.2530 f          1 ZD3      -0.107000
     24 H1          -2.0390     8.2760   -23.3010 h1         1 ZD3       0.064700
     25 H2          -3.3280     7.1740   -23.8090 h1         1 ZD3       0.064700
     26 H3          -3.2080     5.1060   -25.7550 ha         1 ZD3       0.127000
     27 H4          -0.3650     6.4680   -23.3840 h1         1 ZD3       0.048200
     28 H5          -1.2480     6.5090   -24.9180 h1         1 ZD3       0.048200
     29 H6           0.3270     3.2540   -23.0380 ha         1 ZD3       0.138000
     30 H7          -0.9170     1.6760   -28.5300 ha         1 ZD3       0.137000
     31 H8          -2.8210     2.9540   -29.4670 ha         1 ZD3       0.119000
     32 H9          -4.8330     4.3410   -29.0190 hc         1 ZD3       0.046700
     33 H10         -5.0510     5.1370   -27.4560 hc         1 ZD3       0.046700
     34 H11         -3.9750     5.8510   -28.6690 hc         1 ZD3       0.046700
     35 H12         -2.4740     3.4780   -22.2010 h1         1 ZD3       0.045200
     36 H13         -1.1630     4.5190   -21.6220 h1         1 ZD3       0.045200
     37 H14         -4.0650     5.3340   -22.1950 h1         1 ZD3       0.089700
     38 H15         -3.6550     4.0570   -20.0880 h1         1 ZD3       0.016700
     39 H16         -2.4940     5.2840   -19.5640 h1         1 ZD3       0.016700
     40 H17         -1.8420     7.0530   -21.2490 hn         1 ZD3       0.404000
     41 H19         -4.5430     5.6460   -18.6230 ho         1 ZD3       0.442000
@<TRIPOS>BOND
     1     1     8 1   
     2     1    21 1   
     3     1    22 1   
     4     1    23 1   
     5     2     5 1   
     6     2    18 1   
     7     2    24 1   
     8     2    25 1   
     9     3     4 ar  
    10     3     6 ar  
    11     3    10 ar  
    12     4    12 ar  
    13     4    26 1   
    14     5    19 1   
    15     5    27 1   
    16     5    28 1   
    17     6     7 ar  
    18     6    19 1   
    19     7     8 ar  
    20     7    29 1   
    21     8    17 ar  
    22     9    10 ar  
    23     9    11 ar  
    24     9    30 1   
    25    10    17 ar  
    26    11    12 ar  
    27    11    31 1   
    28    12    13 1   
    29    13    32 1   
    30    13    33 1   
    31    13    34 1   
    32    14    15 1   
    33    14    19 1   
    34    14    35 1   
    35    14    36 1   
    36    15    16 1   
    37    15    18 1   
    38    15    37 1   
    39    16    20 1   
    40    16    38 1   
    41    16    39 1   
    42    18    40 1   
    43    20    41 1   
@<TRIPOS>SUBSTRUCTURE
     1 ZD3         1 TEMP              0 ****  ****    0 ROOT
