@<TRIPOS>MOLECULE
ZD3
   41    43     1     0     0
SMALL
abcg2


@<TRIPOS>ATOM
      1 C15          1.3510     1.1310   -24.2470 c3         1 ZD3       0.261700
      2 C12         -2.8200     7.0210   -23.3120 c6         1 ZD3       0.147800
      3 C13         -1.6230     3.7000   -25.8030 ca         1 ZD3      -0.073000
      4 C14         -2.6940     4.3900   -26.4160 ca         1 ZD3      -0.092000
      5 C11         -1.7460     6.1760   -23.9770 c6         1 ZD3       0.152800
      6 C9          -1.2940     3.8310   -24.4170 ca         1 ZD3       0.336000
      7 C8          -0.3400     2.9710   -23.9070 ca         1 ZD3      -0.210000
      8 C7           0.3110     2.0880   -24.7750 ca         1 ZD3       0.282300
      9 C4          -1.1530     2.6640   -27.9590 ca         1 ZD3      -0.079000
     10 C5          -0.8700     2.7860   -26.5790 ca         1 ZD3       0.275000
     11 C3          -2.1650     3.3820   -28.5270 ca         1 ZD3      -0.097000
     12 C2          -2.9730     4.2480   -27.7520 ca         1 ZD3      -0.070300
     13 C1          -4.1160     4.9710   -28.3980 c3         1 ZD3      -0.049800
     14 CB          -1.9170     4.5650   -22.1930 c6         1 ZD3       0.149800
     15 CA          -2.9900     5.4290   -21.5260 c6         1 ZD3       0.157500
     16 C           -2.9280     5.2320   -20.0210 c3         1 ZD3       0.168600
     17 N6           0.0950     1.9960   -26.0570 nb         1 ZD3      -0.634000
     18 N           -2.8820     6.8350   -21.8740 n7         1 ZD3      -0.828400
     19 N10         -1.9460     4.7650   -23.6330 nh         1 ZD3      -0.784400
     20 O           -4.0130     5.8880   -19.4120 oh         1 ZD3      -0.638000
     21 F16          1.8090     1.4900   -23.0440 f          1 ZD3      -0.107000
     22 F17          0.8460    -0.1030   -24.1230 f          1 ZD3      -0.107000
     23 F18          2.4030     1.0430   -25.0620 f          1 ZD3      -0.107000
     24 H1          -2.6380     8.0750   -23.5290 h1         1 ZD3       0.064700
     25 H2          -3.7930     6.7650   -23.7410 h1         1 ZD3       0.064700
     26 H3          -3.3310     5.0230   -25.8110 ha         1 ZD3       0.127000
     27 H4          -0.7530     6.5030   -23.6340 h1         1 ZD3       0.048200
     28 H5          -1.7710     6.3120   -25.0570 h1         1 ZD3       0.048200
     29 H6          -0.0640     3.0080   -22.8640 ha         1 ZD3       0.138000
     30 H7          -0.5570     1.9780   -28.5470 ha         1 ZD3       0.137000
     31 H8          -2.3720     3.2730   -29.5850 ha         1 ZD3       0.119000
     32 H9          -4.8590     4.2690   -28.7790 hc         1 ZD3       0.046700
     33 H10         -4.6130     5.6430   -27.7000 hc         1 ZD3       0.046700
     34 H11         -3.7720     5.5620   -29.2480 hc         1 ZD3       0.046700
     35 H12         -2.1160     3.5130   -21.9770 h1         1 ZD3       0.045200
     36 H13         -0.9310     4.8130   -21.7700 h1         1 ZD3       0.045200
     37 H14         -3.9630     5.0710   -21.8830 h1         1 ZD3       0.089700
     38 H15         -2.9390     4.1540   -19.8130 h1         1 ZD3       0.016700
     39 H16         -1.9640     5.6130   -19.6520 h1         1 ZD3       0.016700
     40 H17         -2.0400     7.2170   -21.4540 hn         1 ZD3       0.404000
     41 H19         -3.9430     5.7590   -18.4620 ho         1 ZD3       0.442000
@<TRIPOS>BOND
     1     1     8 1   
     2     1    21 1   
     3     1    22 1   
     4     1    23 1   
     5     2     5 1   
     6     2    18 1   
     7     2    24 1   
     8     2    25 1   
     9     3     4 ar  
    10     3     6 ar  
    11     3    10 ar  
    12     4    12 ar  
    13     4    26 1   
    14     5    19 1   
    15     5    27 1   
    16     5    28 1   
    17     6     7 ar  
    18     6    19 1   
    19     7     8 ar  
    20     7    29 1   
    21     8    17 ar  
    22     9    10 ar  
    23     9    11 ar  
    24     9    30 1   
    25    10    17 ar  
    26    11    12 ar  
    27    11    31 1   
    28    12    13 1   
    29    13    32 1   
    30    13    33 1   
    31    13    34 1   
    32    14    15 1   
    33    14    19 1   
    34    14    35 1   
    35    14    36 1   
    36    15    16 1   
    37    15    18 1   
    38    15    37 1   
    39    16    20 1   
    40    16    38 1   
    41    16    39 1   
    42    18    40 1   
    43    20    41 1   
@<TRIPOS>SUBSTRUCTURE
     1 ZD3         1 TEMP              0 ****  ****    0 ROOT
