@<TRIPOS>MOLECULE
ZD5
   41    43     1     0     0
SMALL
abcg2


@<TRIPOS>ATOM
      1 C15         -1.1270    -7.9070    -2.5390 c3         1 ZD5       0.261700
      2 C12         -4.3300    -1.4130    -1.9170 c6         1 ZD5       0.147800
      3 C13         -4.6820    -5.6350    -2.7660 ca         1 ZD5      -0.072000
      4 C14         -5.9250    -5.0050    -2.9990 ca         1 ZD5      -0.092000
      5 C11         -4.0550    -2.8670    -1.5760 c6         1 ZD5       0.152800
      6 C9          -3.4440    -4.9220    -2.7030 ca         1 ZD5       0.333000
      7 C8          -2.2820    -5.6670    -2.6520 ca         1 ZD5      -0.207000
      8 C7          -2.3750    -7.0620    -2.5780 ca         1 ZD5       0.281300
      9 C4          -5.8570    -7.7680    -2.6790 ca         1 ZD5      -0.079000
     10 C5          -4.6410    -7.0450    -2.6530 ca         1 ZD5       0.274000
     11 C3          -7.0450    -7.1210    -2.8580 ca         1 ZD5      -0.097000
     12 C2          -7.0960    -5.7180    -3.0460 ca         1 ZD5      -0.069300
     13 C1          -8.4120    -5.0510    -3.3050 c3         1 ZD5      -0.049800
     14 CB          -2.2130    -2.8780    -3.1330 c6         1 ZD5       0.149800
     15 CA          -2.4970    -1.4120    -3.4650 c6         1 ZD5       0.157500
     16 C           -1.2010    -0.7260    -3.8610 c3         1 ZD5       0.168600
     17 N6          -3.4870    -7.7410    -2.5510 nb         1 ZD5      -0.633000
     18 N           -3.1520    -0.7030    -2.3810 n7         1 ZD5      -0.828400
     19 N10         -3.4430    -3.5380    -2.7270 nh         1 ZD5      -0.783400
     20 O           -1.4740     0.5760    -4.3200 oh         1 ZD5      -0.638000
     21 F16         -0.0440    -7.2040    -2.1940 f          1 ZD5      -0.107333
     22 F17         -1.2390    -8.9180    -1.6770 f          1 ZD5      -0.107333
     23 F18         -0.8780    -8.4430    -3.7420 f          1 ZD5      -0.107333
     24 H1          -4.7310    -0.9040    -1.0390 h1         1 ZD5       0.064700
     25 H2          -5.0980    -1.3640    -2.6960 h1         1 ZD5       0.064700
     26 H3          -5.9520    -3.9370    -3.1780 ha         1 ZD5       0.128000
     27 H4          -4.9760    -3.3700    -1.2880 h1         1 ZD5       0.047700
     28 H5          -3.3740    -2.9200    -0.7130 h1         1 ZD5       0.047700
     29 H6          -1.3160    -5.1840    -2.6230 ha         1 ZD5       0.138000
     30 H7          -5.8170    -8.8440    -2.5690 ha         1 ZD5       0.137000
     31 H8          -7.9670    -7.6900    -2.8820 ha         1 ZD5       0.119000
     32 H9          -9.0950    -5.1960    -2.4660 hc         1 ZD5       0.046367
     33 H10         -8.2940    -3.9800    -3.4610 hc         1 ZD5       0.046367
     34 H11         -8.8990    -5.4690    -4.1870 hc         1 ZD5       0.046367
     35 H12         -1.8170    -3.3820    -4.0170 h1         1 ZD5       0.045200
     36 H13         -1.4450    -2.9330    -2.3450 h1         1 ZD5       0.045200
     37 H14         -3.1760    -1.4000    -4.3280 h1         1 ZD5       0.089700
     38 H15         -0.7120    -1.3340    -4.6330 h1         1 ZD5       0.016700
     39 H16         -0.5260    -0.7160    -2.9930 h1         1 ZD5       0.016700
     40 H17         -2.5000    -0.6020    -1.6090 hn         1 ZD5       0.404000
     41 H19         -0.6400     0.9820    -4.5710 ho         1 ZD5       0.441000
@<TRIPOS>BOND
     1     1     8 1   
     2     1    21 1   
     3     1    22 1   
     4     1    23 1   
     5     2     5 1   
     6     2    18 1   
     7     2    24 1   
     8     2    25 1   
     9     3     4 ar  
    10     3     6 ar  
    11     3    10 ar  
    12     4    12 ar  
    13     4    26 1   
    14     5    19 1   
    15     5    27 1   
    16     5    28 1   
    17     6     7 ar  
    18     6    19 1   
    19     7     8 ar  
    20     7    29 1   
    21     8    17 ar  
    22     9    10 ar  
    23     9    11 ar  
    24     9    30 1   
    25    10    17 ar  
    26    11    12 ar  
    27    11    31 1   
    28    12    13 1   
    29    13    32 1   
    30    13    33 1   
    31    13    34 1   
    32    14    15 1   
    33    14    19 1   
    34    14    35 1   
    35    14    36 1   
    36    15    16 1   
    37    15    18 1   
    38    15    37 1   
    39    16    20 1   
    40    16    38 1   
    41    16    39 1   
    42    18    40 1   
    43    20    41 1   
@<TRIPOS>SUBSTRUCTURE
     1 ZD5         1 TEMP              0 ****  ****    0 ROOT
