@<TRIPOS>MOLECULE
ZD5
   41    43     1     0     0
SMALL
No Charge or Current Charge


@<TRIPOS>ATOM
      1 C15         -1.0850    -8.0180    -2.1620 c3         1 ZD5       0.261700
      2 C12         -4.1270    -1.3930    -1.5300 c6         1 ZD5       0.147800
      3 C13         -4.6700    -5.6960    -2.7850 ca         1 ZD5      -0.072000
      4 C14         -5.8780    -4.9940    -3.0090 ca         1 ZD5      -0.092000
      5 C11         -3.7950    -2.8960    -1.2630 c6         1 ZD5       0.152800
      6 C9          -3.4500    -5.0200    -2.5560 ca         1 ZD5       0.333000
      7 C8          -2.2920    -5.7800    -2.3580 ca         1 ZD5      -0.207000
      8 C7          -2.3620    -7.1800    -2.3870 ca         1 ZD5       0.281300
      9 C4          -5.8750    -7.7920    -3.0210 ca         1 ZD5      -0.079000
     10 C5          -4.6640    -7.1120    -2.7970 ca         1 ZD5       0.274000
     11 C3          -7.0740    -7.0920    -3.2350 ca         1 ZD5      -0.097000
     12 C2          -7.0800    -5.6880    -3.2340 ca         1 ZD5      -0.069300
     13 C1          -8.3740    -4.9240    -3.4690 c3         1 ZD5      -0.049800
     14 CB          -2.3030    -2.8860    -3.2660 c6         1 ZD5       0.149800
     15 CA          -2.6600    -1.3800    -3.5160 c6         1 ZD5       0.157500
     16 C           -1.4850    -0.6530    -4.2560 c3         1 ZD5       0.168600
     17 N6          -3.5340    -7.8280    -2.6010 nb         1 ZD5      -0.633000
     18 N           -3.0280    -0.6770    -2.2400 n7         1 ZD5      -0.828400
     19 N10         -3.3700    -3.6080    -2.5060 nh         1 ZD5      -0.783400
     20 O           -1.8090     0.6890    -4.6590 oh         1 ZD5      -0.638000
     21 F16         -0.5630    -7.8050    -0.9310 f          1 ZD5      -0.107333
     22 F17         -1.2900    -9.3540    -2.2700 f          1 ZD5      -0.107333
     23 F18         -0.1190    -7.7020    -3.0560 f          1 ZD5      -0.107333
     24 H1          -4.3420    -0.8930    -0.5740 h1         1 ZD5       0.064700
     25 H2          -5.0440    -1.3390    -2.1360 h1         1 ZD5       0.064700
     26 H3          -5.8900    -3.9070    -3.0150 ha         1 ZD5       0.128000
     27 H4          -4.6830    -3.3790    -0.8290 h1         1 ZD5       0.047700
     28 H5          -2.9940    -2.9550    -0.5110 h1         1 ZD5       0.047700
     29 H6          -1.3420    -5.2910    -2.1690 ha         1 ZD5       0.138000
     30 H7          -5.8810    -8.8790    -3.0280 ha         1 ZD5       0.137000
     31 H8          -7.9960    -7.6450    -3.4040 ha         1 ZD5       0.119000
     32 H9          -8.8560    -4.6730    -2.5170 hc         1 ZD5       0.046367
     33 H10         -8.1910    -3.9870    -4.0090 hc         1 ZD5       0.046367
     34 H11         -9.0860    -5.5110    -4.0610 hc         1 ZD5       0.046367
     35 H12         -2.1430    -3.3740    -4.2390 h1         1 ZD5       0.045200
     36 H13         -1.3540    -2.9400    -2.7130 h1         1 ZD5       0.045200
     37 H14         -3.5270    -1.3600    -4.1930 h1         1 ZD5       0.089700
     38 H15         -1.2190    -1.2470    -5.1410 h1         1 ZD5       0.016700
     39 H16         -0.6080    -0.6450    -3.5940 h1         1 ZD5       0.016700
     40 H17         -2.2020    -0.6750    -1.6320 hn         1 ZD5       0.404000
     41 H19         -0.9920     1.0770    -5.0430 ho         1 ZD5       0.441000
@<TRIPOS>BOND
     1     1     8 1   
     2     1    21 1   
     3     1    22 1   
     4     1    23 1   
     5     2     5 1   
     6     2    18 1   
     7     2    24 1   
     8     2    25 1   
     9     3     4 ar  
    10     3     6 ar  
    11     3    10 ar  
    12     4    12 ar  
    13     4    26 1   
    14     5    19 1   
    15     5    27 1   
    16     5    28 1   
    17     6     7 ar  
    18     6    19 1   
    19     7     8 ar  
    20     7    29 1   
    21     8    17 ar  
    22     9    10 ar  
    23     9    11 ar  
    24     9    30 1   
    25    10    17 ar  
    26    11    12 ar  
    27    11    31 1   
    28    12    13 1   
    29    13    32 1   
    30    13    33 1   
    31    13    34 1   
    32    14    15 1   
    33    14    19 1   
    34    14    35 1   
    35    14    36 1   
    36    15    16 1   
    37    15    18 1   
    38    15    37 1   
    39    16    20 1   
    40    16    38 1   
    41    16    39 1   
    42    18    40 1   
    43    20    41 1   
@<TRIPOS>SUBSTRUCTURE
     1 ZD5         1 TEMP              0 ****  ****    0 ROOT
