@<TRIPOS>MOLECULE
ZD6
   54    57     1     0     0
SMALL
bcc


@<TRIPOS>ATOM
      1 CAK         -7.6180     1.3510    -0.6760 c6         1 ZD6      -0.072400
      2 CAM         -9.0330     0.8040    -0.5780 c6         1 ZD6       0.166800
      3 NBD         -9.2730     0.1980     0.7180 n3         1 ZD6      -0.717600
      4 CAB        -10.6450    -0.2330     0.8530 c3         1 ZD6       0.153100
      5 CAN         -8.3480    -0.8900     0.9700 c6         1 ZD6       0.166800
      6 CAL         -6.9040    -0.4120     0.9280 c6         1 ZD6      -0.072400
      7 CBC         -6.5930     0.2500    -0.4120 c6         1 ZD6      -0.064700
      8 CAO         -5.1920     0.8220    -0.4780 c3         1 ZD6       0.140400
      9 OAT         -4.2620    -0.2390    -0.3040 os         1 ZD6      -0.299900
     10 CAY         -2.9600     0.0410    -0.2900 ca         1 ZD6       0.167100
     11 CAI         -2.4130     1.2870    -0.4540 ca         1 ZD6      -0.275300
     12 CAX         -2.1060    -1.0900    -0.0780 ca         1 ZD6       0.118100
     13 OAS         -2.7500    -2.2530     0.0800 os         1 ZD6      -0.292900
     14 CAA         -1.9810    -3.4200     0.2970 c3         1 ZD6       0.119700
     15 CAJ         -0.7490    -0.9210    -0.0460 ca         1 ZD6      -0.178000
     16 C5          -0.1770     0.3600    -0.2240 ca         1 ZD6      -0.295600
     17 C4          -1.0150     1.4710    -0.4210 ca         1 ZD6       0.459600
     18 N3          -0.5220     2.7260    -0.5800 nb         1 ZD6      -0.725000
     19 C2           0.7740     2.8420    -0.5370 ca         1 ZD6       0.687900
     20 N1           1.6740     1.8670    -0.3650 nb         1 ZD6      -0.797000
     21 C6           1.2240     0.6400    -0.2150 ca         1 ZD6       0.731200
     22 NAR          2.1130    -0.3760    -0.0570 nu         1 ZD6      -0.742300
     23 CAW          3.5010    -0.2960     0.0080 ca         1 ZD6       0.146600
     24 CAF          4.2130     0.7650     0.5640 ca         1 ZD6      -0.112000
     25 CAE          5.5980     0.7450     0.6220 ca         1 ZD6      -0.094000
     26 CAU          6.2940    -0.3490     0.1340 ca         1 ZD6      -0.022900
     27 BR           8.1760    -0.3810     0.2120 br         1 ZD6      -0.085100
     28 CAH          5.6190    -1.4310    -0.4120 ca         1 ZD6      -0.119000
     29 CAV          4.2450    -1.3750    -0.4670 ca         1 ZD6       0.078900
     30 FAC          3.5810    -2.4140    -0.9980 f          1 ZD6      -0.148900
     31 H1          -7.4670     1.7890    -1.6650 hc         1 ZD6       0.052200
     32 H2          -7.4920     2.1540     0.0580 hc         1 ZD6       0.052200
     33 H3          -9.7540     1.6130    -0.7230 h1         1 ZD6       0.031200
     34 H4          -9.2000     0.0810    -1.3970 h1         1 ZD6       0.031200
     35 H6         -10.9300    -1.0190     0.1360 h1         1 ZD6       0.029700
     36 H7         -10.8180    -0.6240     1.8570 h1         1 ZD6       0.029700
     37 H8         -11.3190     0.6110     0.7020 h1         1 ZD6       0.029700
     38 H9          -8.5680    -1.3130     1.9530 h1         1 ZD6       0.031200
     39 H10         -8.4790    -1.7070     0.2370 h1         1 ZD6       0.031200
     40 H11         -6.7410     0.3120     1.7340 hc         1 ZD6       0.052200
     41 H12         -6.2400    -1.2580     1.1110 hc         1 ZD6       0.052200
     42 H13         -6.6950    -0.5010    -1.2060 hc         1 ZD6       0.060700
     43 H14         -5.0250     1.3090    -1.4460 h1         1 ZD6       0.041700
     44 H15         -5.0490     1.5770     0.3050 h1         1 ZD6       0.041700
     45 H16         -3.0290     2.1620    -0.6080 ha         1 ZD6       0.162000
     46 H17         -1.3930    -3.3520     1.2170 h1         1 ZD6       0.043033
     47 H18         -2.6860    -4.2410     0.3910 h1         1 ZD6       0.043033
     48 H19         -1.3080    -3.6240    -0.5400 h1         1 ZD6       0.043033
     49 H20         -0.1180    -1.7830     0.1260 ha         1 ZD6       0.133000
     50 H21          1.1840     3.8390    -0.6580 h5         1 ZD6       0.047100
     51 H22          1.7420    -1.3110    -0.1060 hn         1 ZD6       0.453800
     52 H23          3.6870     1.6190     0.9580 ha         1 ZD6       0.167000
     53 H24          6.1170     1.5870     1.0580 ha         1 ZD6       0.154000
     54 H25          6.1340    -2.2990    -0.8010 ha         1 ZD6       0.165000
@<TRIPOS>BOND
     1     1     2 1   
     2     1     7 1   
     3     1    31 1   
     4     1    32 1   
     5     2     3 1   
     6     2    33 1   
     7     2    34 1   
     8     3     4 1   
     9     3     5 1   
    10     4    35 1   
    11     4    36 1   
    12     4    37 1   
    13     5     6 1   
    14     5    38 1   
    15     5    39 1   
    16     6     7 1   
    17     6    40 1   
    18     6    41 1   
    19     7     8 1   
    20     7    42 1   
    21     8     9 1   
    22     8    43 1   
    23     8    44 1   
    24     9    10 1   
    25    10    11 ar  
    26    10    12 ar  
    27    11    17 ar  
    28    11    45 1   
    29    12    13 1   
    30    12    15 ar  
    31    13    14 1   
    32    14    46 1   
    33    14    47 1   
    34    14    48 1   
    35    15    16 ar  
    36    15    49 1   
    37    16    17 ar  
    38    16    21 ar  
    39    17    18 ar  
    40    18    19 ar  
    41    19    20 ar  
    42    19    50 1   
    43    20    21 ar  
    44    21    22 1   
    45    22    23 1   
    46    22    51 1   
    47    23    24 ar  
    48    23    29 ar  
    49    24    25 ar  
    50    24    52 1   
    51    25    26 ar  
    52    25    53 1   
    53    26    27 1   
    54    26    28 ar  
    55    28    29 ar  
    56    28    54 1   
    57    29    30 1   
@<TRIPOS>SUBSTRUCTURE
     1 ZD6         1 TEMP              0 ****  ****    0 ROOT
