@<TRIPOS>MOLECULE
ZD6
   54    57     1     0     0
SMALL
No Charge or Current Charge


@<TRIPOS>ATOM
      1 CAK         -7.7720     1.3780    -0.6660 c6         1 ZD6      -0.072400
      2 CAM         -9.1980     0.7860    -0.5520 c6         1 ZD6       0.166800
      3 NBD         -9.4250     0.1610     0.7800 n3         1 ZD6      -0.717600
      4 CAB        -10.8160    -0.3130     0.9470 c3         1 ZD6       0.153100
      5 CAN         -8.4270    -0.9080     1.0580 c6         1 ZD6       0.166800
      6 CAL         -6.9780    -0.3670     0.9900 c6         1 ZD6      -0.072400
      7 CBC         -6.6910     0.3020    -0.3830 c6         1 ZD6      -0.064700
      8 CAO         -5.2590     0.9010    -0.4640 c3         1 ZD6       0.163600
      9 OAT         -4.2960    -0.1560    -0.3110 os         1 ZD6      -0.323100
     10 CAY         -2.9300     0.0700    -0.3290 ca         1 ZD6       0.167100
     11 CAI         -2.3920     1.3620    -0.5140 ca         1 ZD6      -0.192000
     12 CAX         -2.0620    -1.0330    -0.1530 ca         1 ZD6       0.118100
     13 OAS         -2.6180    -2.2890     0.0330 os         1 ZD6      -0.316100
     14 CAA         -1.8210    -3.4710     0.2230 c3         1 ZD6       0.142900
     15 CAJ         -0.6630    -0.8300    -0.1670 ca         1 ZD6      -0.160000
     16 C5          -0.1310     0.4680    -0.3580 ca         1 ZD6      -0.165000
     17 C4          -1.0040     1.5700    -0.5300 ca         1 ZD6       0.066000
     18 N3          -0.5120     2.8140    -0.7080 nb         1 ZD6      -0.199000
     19 C2           0.8270     2.9550    -0.7180 ca         1 ZD6       0.161900
     20 N1           1.7370     1.9750    -0.5690 nb         1 ZD6      -0.271000
     21 C6           1.2630     0.7330    -0.3800 ca         1 ZD6       0.402900
     22 NAR          2.2070    -0.2910    -0.2700 nu         1 ZD6      -0.935900
     23 CAW          3.5990    -0.3370    -0.0530 ca         1 ZD6       0.285000
     24 CAF          4.2820     0.6980     0.6220 ca         1 ZD6      -0.094000
     25 CAE          5.6700     0.6200     0.8390 ca         1 ZD6      -0.076000
     26 CAU          6.3900    -0.4990     0.3910 ca         1 ZD6      -0.022900
     27 Br           8.2770    -0.6030     0.6890 br         1 ZD6      -0.085100
     28 CAH          5.7260    -1.5470    -0.2650 ca         1 ZD6      -0.101000
     29 CAV          4.3400    -1.4690    -0.4800 ca         1 ZD6       0.114000
     30 FAC          3.7160    -2.4960    -1.1090 f          1 ZD6      -0.184000
     31 H1          -7.6310     1.8010    -1.6700 hc         1 ZD6       0.052200
     32 H2          -7.6680     2.2110     0.0430 hc         1 ZD6       0.052200
     33 H3          -9.9280     1.5920    -0.7230 h1         1 ZD6       0.031200
     34 H4          -9.3430     0.0430    -1.3510 h1         1 ZD6       0.031200
     35 H6         -11.0500    -1.1060     0.2240 h1         1 ZD6       0.029700
     36 H7         -10.9710    -0.7120     1.9580 h1         1 ZD6       0.029700
     37 H8         -11.5270     0.5110     0.7970 h1         1 ZD6       0.029700
     38 H9          -8.5960    -1.3350     2.0570 h1         1 ZD6       0.031200
     39 H10         -8.5380    -1.7290     0.3330 h1         1 ZD6       0.031200
     40 H11         -6.8220     0.3580     1.8010 hc         1 ZD6       0.052200
     41 H12         -6.2760    -1.1920     1.1680 hc         1 ZD6       0.052200
     42 H13         -6.7510    -0.4640    -1.1690 hc         1 ZD6       0.060700
     43 H14         -5.1340     1.3930    -1.4380 h1         1 ZD6       0.041700
     44 H15         -5.1400     1.6540     0.3260 h1         1 ZD6       0.041700
     45 H16         -3.0420     2.2220    -0.6500 ha         1 ZD6       0.144000
     46 H17         -1.1950    -3.3800     1.1200 h1         1 ZD6       0.043033
     47 H18         -2.4680    -4.3490     0.3490 h1         1 ZD6       0.043033
     48 H19         -1.1730    -3.6490    -0.6440 h1         1 ZD6       0.043033
     49 H20          0.0060    -1.6720    -0.0210 ha         1 ZD6       0.115000
     50 H21          1.2120     3.9620    -0.8660 h5         1 ZD6       0.047100
     51 H22          1.8170    -1.2010    -0.5060 hn         1 ZD6       0.509000
     52 H23          3.7400     1.5590     0.9990 ha         1 ZD6       0.149000
     53 H24          6.1840     1.4260     1.3590 ha         1 ZD6       0.136000
     54 H25          6.2790    -2.4190    -0.6050 ha         1 ZD6       0.147000
@<TRIPOS>BOND
     1     1     2 1   
     2     1     7 1   
     3     1    31 1   
     4     1    32 1   
     5     2     3 1   
     6     2    33 1   
     7     2    34 1   
     8     3     4 1   
     9     3     5 1   
    10     4    35 1   
    11     4    36 1   
    12     4    37 1   
    13     5     6 1   
    14     5    38 1   
    15     5    39 1   
    16     6     7 1   
    17     6    40 1   
    18     6    41 1   
    19     7     8 1   
    20     7    42 1   
    21     8     9 1   
    22     8    43 1   
    23     8    44 1   
    24     9    10 1   
    25    10    11 ar  
    26    10    12 ar  
    27    11    17 ar  
    28    11    45 1   
    29    12    13 1   
    30    12    15 ar  
    31    13    14 1   
    32    14    46 1   
    33    14    47 1   
    34    14    48 1   
    35    15    16 ar  
    36    15    49 1   
    37    16    17 ar  
    38    16    21 ar  
    39    17    18 ar  
    40    18    19 ar  
    41    19    20 ar  
    42    19    50 1   
    43    20    21 ar  
    44    21    22 1   
    45    22    23 1   
    46    22    51 1   
    47    23    24 ar  
    48    23    29 ar  
    49    24    25 ar  
    50    24    52 1   
    51    25    26 ar  
    52    25    53 1   
    53    26    27 1   
    54    26    28 ar  
    55    28    29 ar  
    56    28    54 1   
    57    29    30 1   
@<TRIPOS>SUBSTRUCTURE
     1 ZD6         1 TEMP              0 ****  ****    0 ROOT
