@<TRIPOS>MOLECULE
ZD7
   59    63     1     0     0
SMALL
abcg2


@<TRIPOS>ATOM
      1 C4          -2.7350    -1.2390    -0.9210 ca         1 ZD7       0.396300
      2 C3          -3.3280     0.9560    -1.2270 ca         1 ZD7       0.390300
      3 C2          -3.8380     1.9890    -2.1940 c3         1 ZD7      -0.130700
      4 C1          -5.3640     2.0750    -2.1790 c3         1 ZD7      -0.086100
      5 O1          -2.4890     1.8620     4.0980 o          1 ZD7      -0.540000
      6 N1          -3.1610    -0.2680    -1.7200 nb         1 ZD7      -0.687000
      7 C10         -3.2440     2.6390     0.6950 c6         1 ZD7      -0.016100
      8 C11         -3.6950     2.5030     2.1390 c6         1 ZD7      -0.160400
      9 C12         -2.7640     1.6320     2.9360 c          1 ZD7       0.572000
     10 C13         -1.3710    -0.3710     2.9760 c3         1 ZD7       0.135300
     11 C14         -0.0550    -0.5740     2.2690 ca         1 ZD7      -0.089300
     12 C15          0.6080    -1.7900     2.3880 ca         1 ZD7      -0.096500
     13 C16          1.8170    -2.0070     1.7450 ca         1 ZD7      -0.087000
     14 C17          0.5270     0.4320     1.5060 ca         1 ZD7      -0.096500
     15 C18          1.7260     0.2120     0.8490 ca         1 ZD7      -0.087000
     16 C19          2.3790    -1.0140     0.9490 cp         1 ZD7      -0.046000
     17 N2          -2.2580     0.5410     2.2710 n          1 ZD7      -0.226400
     18 C20          3.6430    -1.2450     0.2180 cp         1 ZD7       0.015000
     19 C21          4.8150    -1.5370     0.9110 ca         1 ZD7      -0.103000
     20 C22          6.0210    -1.6920     0.2420 ca         1 ZD7      -0.088000
     21 C23          6.0740    -1.5500    -1.1370 ca         1 ZD7      -0.111000
     22 C24          4.9140    -1.2770    -1.8450 ca         1 ZD7      -0.089000
     23 C25          3.7010    -1.1360    -1.1760 ca         1 ZD7      -0.140500
     24 C26          2.4760    -0.9450    -1.9570 cc         1 ZD7       0.452000
     25 N3           2.2480     0.0480    -2.8190 na         1 ZD7      -0.212700
     26 N4           1.0580    -0.1180    -3.3670 nc         1 ZD7      -0.202800
     27 C5          -2.5720    -2.6000    -1.5360 c3         1 ZD7      -0.131700
     28 N5           0.5750    -1.1830    -2.8560 nd         1 ZD7      -0.045000
     29 C6          -3.8870    -3.1640    -2.0640 c3         1 ZD7      -0.082100
     30 N6           1.4190    -1.7240    -1.9810 nd         1 ZD7      -0.371000
     31 C7          -2.4500    -1.0220     0.4180 ca         1 ZD7      -0.198000
     32 C8          -2.6060     0.2560     0.9410 ca         1 ZD7       0.016000
     33 C9          -3.0720     1.2730     0.1060 ca         1 ZD7      -0.185300
     34 H1          -3.4100     2.9700    -1.9800 hc         1 ZD7       0.056200
     35 H2          -3.5020     1.7130    -3.1940 hc         1 ZD7       0.056200
     36 H3          -5.8090     1.1120    -2.4330 hc         1 ZD7       0.035700
     37 H4          -5.7410     2.3650    -1.1980 hc         1 ZD7       0.035700
     38 H5          -5.7180     2.8100    -2.9020 hc         1 ZD7       0.035700
     39 H6          -3.9770     3.2290     0.1460 hc         1 ZD7       0.057700
     40 H7          -2.3020     3.1970     0.6490 hc         1 ZD7       0.057700
     41 H8          -3.7660     3.4700     2.6330 hc         1 ZD7       0.077200
     42 H9          -4.6920     2.0490     2.1730 hc         1 ZD7       0.077200
     43 H10         -1.8640    -1.3330     3.1370 h1         1 ZD7       0.072700
     44 H11         -1.2000     0.0470     3.9660 h1         1 ZD7       0.072700
     45 H12          0.1660    -2.5870     2.9750 ha         1 ZD7       0.117500
     46 H13          2.3070    -2.9690     1.8350 ha         1 ZD7       0.114000
     47 H14          0.0420     1.3950     1.4050 ha         1 ZD7       0.117500
     48 H15          2.1620     1.0080     0.2580 ha         1 ZD7       0.114000
     49 H16          4.7830    -1.6210     1.9900 ha         1 ZD7       0.125000
     50 H17          6.9200    -1.9140     0.8010 ha         1 ZD7       0.120000
     51 H18          7.0130    -1.6630    -1.6640 ha         1 ZD7       0.121000
     52 H19          4.9480    -1.1990    -2.9240 ha         1 ZD7       0.118000
     53 H20          2.8270     0.8410    -3.0600 hn         1 ZD7       0.386000
     54 H21         -1.8470    -2.5220    -2.3490 hc         1 ZD7       0.063200
     55 H22         -2.1420    -3.2830    -0.8000 hc         1 ZD7       0.063200
     56 H23         -4.6180    -3.2830    -1.2640 hc         1 ZD7       0.035700
     57 H24         -4.3190    -2.5060    -2.8170 hc         1 ZD7       0.035700
     58 H25         -3.7330    -4.1420    -2.5220 hc         1 ZD7       0.035700
     59 H26         -2.1000    -1.8480     1.0210 ha         1 ZD7       0.130000
@<TRIPOS>BOND
     1     1     6 ar  
     2     1    27 1   
     3     1    31 ar  
     4     2     3 1   
     5     2     6 ar  
     6     2    33 ar  
     7     3     4 1   
     8     3    34 1   
     9     3    35 1   
    10     4    36 1   
    11     4    37 1   
    12     4    38 1   
    13     5     9 2   
    14     7     8 1   
    15     7    33 1   
    16     7    39 1   
    17     7    40 1   
    18     8     9 1   
    19     8    41 1   
    20     8    42 1   
    21     9    17 1   
    22    10    11 1   
    23    10    17 1   
    24    10    43 1   
    25    10    44 1   
    26    11    12 ar  
    27    11    14 ar  
    28    12    13 ar  
    29    12    45 1   
    30    13    16 ar  
    31    13    46 1   
    32    14    15 ar  
    33    14    47 1   
    34    15    16 ar  
    35    15    48 1   
    36    16    18 1   
    37    17    32 1   
    38    18    19 ar  
    39    18    23 ar  
    40    19    20 ar  
    41    19    49 1   
    42    20    21 ar  
    43    20    50 1   
    44    21    22 ar  
    45    21    51 1   
    46    22    23 ar  
    47    22    52 1   
    48    23    24 1   
    49    24    25 1   
    50    24    30 2   
    51    25    26 1   
    52    25    53 1   
    53    26    28 2   
    54    27    29 1   
    55    27    54 1   
    56    27    55 1   
    57    28    30 1   
    58    29    56 1   
    59    29    57 1   
    60    29    58 1   
    61    31    32 ar  
    62    31    59 1   
    63    32    33 ar  
@<TRIPOS>SUBSTRUCTURE
     1 ZD7         1 TEMP              0 ****  ****    0 ROOT
