@<TRIPOS>MOLECULE
ZD7
   59    63     1     0     0
SMALL
No Charge or Current Charge


@<TRIPOS>ATOM
      1 C4          -2.6460    -1.1350    -1.0610 ca         1 ZD7       0.396300
      2 C3          -3.3360     1.0630    -1.2930 ca         1 ZD7       0.390300
      3 C2          -3.8730     2.1120    -2.2660 c3         1 ZD7      -0.130700
      4 C1          -5.4160     2.1460    -2.3220 c3         1 ZD7      -0.086100
      5 O1          -2.7250     1.8880     4.1560 o          1 ZD7      -0.540000
      6 N1          -3.1000    -0.1430    -1.8510 nb         1 ZD7      -0.687000
      7 C10         -3.4280     2.6830     0.7270 c6         1 ZD7      -0.016100
      8 C11         -3.9160     2.4920     2.1740 c6         1 ZD7      -0.160400
      9 C12         -2.9640     1.6140     2.9860 c          1 ZD7       0.572000
     10 C13         -1.4290    -0.3590     3.0650 c3         1 ZD7       0.135300
     11 C14         -0.0900    -0.5900     2.3650 ca         1 ZD7      -0.089300
     12 C15          0.4610    -1.8850     2.3040 ca         1 ZD7      -0.096500
     13 C16          1.6610    -2.1130     1.6100 ca         1 ZD7      -0.087000
     14 C17          0.5920     0.4790     1.7500 ca         1 ZD7      -0.096500
     15 C18          1.7870     0.2460     1.0510 ca         1 ZD7      -0.087000
     16 C19          2.3320    -1.0550     0.9550 cp         1 ZD7      -0.046000
     17 N2          -2.3770     0.5140     2.3150 n          1 ZD7      -0.226400
     18 C20          3.5840    -1.3050     0.1860 cp         1 ZD7       0.015000
     19 C21          4.7210    -1.7740     0.8860 ca         1 ZD7      -0.103000
     20 C22          5.9420    -1.9860     0.2320 ca         1 ZD7      -0.088000
     21 C23          6.0430    -1.7350    -1.1420 ca         1 ZD7      -0.111000
     22 C24          4.9260    -1.2780    -1.8590 ca         1 ZD7      -0.089000
     23 C25          3.6840    -1.0490    -1.2160 ca         1 ZD7      -0.140500
     24 C26          2.5360    -0.6550    -2.0540 cc         1 ZD7       0.452000
     25 N3           2.6110     0.0050    -3.2470 na         1 ZD7      -0.212700
     26 N4           1.3740     0.1780    -3.7780 nc         1 ZD7      -0.202800
     27 C5          -2.4290    -2.4870    -1.7240 c3         1 ZD7      -0.131700
     28 N5           0.5710    -0.3830    -2.9170 nd         1 ZD7      -0.045000
     29 C6          -3.5550    -3.4930    -1.4110 c3         1 ZD7      -0.082100
     30 N6           1.2590    -0.9140    -1.8510 nd         1 ZD7      -0.371000
     31 C7          -2.3970    -0.9600     0.3060 ca         1 ZD7      -0.198000
     32 C8          -2.5500     0.3110     0.8910 ca         1 ZD7       0.016000
     33 C9          -3.1130     1.3260     0.0850 ca         1 ZD7      -0.185300
     34 H1          -3.4930     3.1070    -2.0110 hc         1 ZD7       0.056200
     35 H2          -3.4960     1.9120    -3.2770 hc         1 ZD7       0.056200
     36 H3          -5.8110     1.1800    -2.6580 hc         1 ZD7       0.035700
     37 H4          -5.8410     2.3660    -1.3360 hc         1 ZD7       0.035700
     38 H5          -5.7570     2.9180    -3.0230 hc         1 ZD7       0.035700
     39 H6          -4.1970     3.2330     0.1710 hc         1 ZD7       0.057700
     40 H7          -2.5250     3.3100     0.7170 hc         1 ZD7       0.057700
     41 H8          -4.1160     3.4370     2.6960 hc         1 ZD7       0.077200
     42 H9          -4.8570     1.9310     2.1020 hc         1 ZD7       0.077200
     43 H10         -1.9240    -1.3230     3.2350 h1         1 ZD7       0.072700
     44 H11         -1.2140     0.0590     4.0560 h1         1 ZD7       0.072700
     45 H12         -0.0480    -2.7200     2.7790 ha         1 ZD7       0.117500
     46 H13          2.0660    -3.1210     1.5570 ha         1 ZD7       0.114000
     47 H14          0.1850     1.4860     1.7930 ha         1 ZD7       0.117500
     48 H15          2.2930     1.0780     0.5660 ha         1 ZD7       0.114000
     49 H16          4.6510    -1.9630     1.9550 ha         1 ZD7       0.125000
     50 H17          6.8060    -2.3430     0.7880 ha         1 ZD7       0.120000
     51 H18          6.9870    -1.9040    -1.6560 ha         1 ZD7       0.121000
     52 H19          5.0320    -1.1230    -2.9300 ha         1 ZD7       0.118000
     53 H20          3.4480     0.3480    -3.7000 hn         1 ZD7       0.386000
     54 H21         -2.3460    -2.3720    -2.8120 hc         1 ZD7       0.063200
     55 H22         -1.4720    -2.9060    -1.3900 hc         1 ZD7       0.063200
     56 H23         -3.6260    -3.6730    -0.3310 hc         1 ZD7       0.035700
     57 H24         -4.5210    -3.1120    -1.7620 hc         1 ZD7       0.035700
     58 H25         -3.3620    -4.4510    -1.9070 hc         1 ZD7       0.035700
     59 H26         -2.0650    -1.8130     0.8880 ha         1 ZD7       0.130000
@<TRIPOS>BOND
     1     1     6 ar  
     2     1    27 1   
     3     1    31 ar  
     4     2     3 1   
     5     2     6 ar  
     6     2    33 ar  
     7     3     4 1   
     8     3    34 1   
     9     3    35 1   
    10     4    36 1   
    11     4    37 1   
    12     4    38 1   
    13     5     9 2   
    14     7     8 1   
    15     7    33 1   
    16     7    39 1   
    17     7    40 1   
    18     8     9 1   
    19     8    41 1   
    20     8    42 1   
    21     9    17 1   
    22    10    11 1   
    23    10    17 1   
    24    10    43 1   
    25    10    44 1   
    26    11    12 ar  
    27    11    14 ar  
    28    12    13 ar  
    29    12    45 1   
    30    13    16 ar  
    31    13    46 1   
    32    14    15 ar  
    33    14    47 1   
    34    15    16 ar  
    35    15    48 1   
    36    16    18 1   
    37    17    32 1   
    38    18    19 ar  
    39    18    23 ar  
    40    19    20 ar  
    41    19    49 1   
    42    20    21 ar  
    43    20    50 1   
    44    21    22 ar  
    45    21    51 1   
    46    22    23 ar  
    47    22    52 1   
    48    23    24 1   
    49    24    25 1   
    50    24    30 2   
    51    25    26 1   
    52    25    53 1   
    53    26    28 2   
    54    27    29 1   
    55    27    54 1   
    56    27    55 1   
    57    28    30 1   
    58    29    56 1   
    59    29    57 1   
    60    29    58 1   
    61    31    32 ar  
    62    31    59 1   
    63    32    33 ar  
@<TRIPOS>SUBSTRUCTURE
     1 ZD7         1 TEMP              0 ****  ****    0 ROOT
