@<TRIPOS>MOLECULE
ZD9
   33    34     1     0     0
SMALL
No Charge or Current Charge


@<TRIPOS>ATOM
      1 C1          -2.4400    -1.5210     0.0310 c          1 ZD9       0.580600
      2 N2          -3.6940    -1.0680     0.2490 ns         1 ZD9      -0.432400
      3 C3          -4.0380     0.2520     0.3480 cc         1 ZD9       0.507900
      4 N4          -3.1880     1.2720     0.2440 nd         1 ZD9      -0.629100
      5 C5          -1.8530     0.8920     0.0160 ca         1 ZD9       0.201400
      6 C6          -1.4290    -0.4430    -0.0970 ca         1 ZD9      -0.214600
      7 O7          -2.1880    -2.7130    -0.0490 o          1 ZD9      -0.540000
      8 C8          -0.0720    -0.7430    -0.3260 ca         1 ZD9      -0.031000
      9 C9           0.8810     0.2870    -0.4470 ca         1 ZD9      -0.125300
     10 C10          0.4620     1.6340    -0.3340 ca         1 ZD9      -0.005300
     11 C11         -0.8990     1.9160    -0.1050 ca         1 ZD9      -0.116000
     12 C12          2.3410    -0.0850    -0.6990 c3         1 ZD9       0.245100
     13 N13          3.0890    -0.1290     0.5710 n7         1 ZD9      -0.687000
     14 C14          4.4090    -0.3710     0.5340 c1         1 ZD9      -0.035200
     15 C15          5.5960    -0.5750     0.4480 c1         1 ZD9      -0.184100
     16 C16          7.0380    -0.8100     0.3110 c3         1 ZD9       0.016000
     17 C38          1.4500     2.7910    -0.4560 c3         1 ZD9      -0.058800
     18 C39         -5.4990     0.4790     0.5910 c3         1 ZD9      -0.143400
     19 HN2         -4.4120    -1.7710     0.3420 hn         1 ZD9       0.328500
     20 H8           0.2450    -1.7820    -0.4130 ha         1 ZD9       0.133000
     21 H11         -1.2260     2.9490    -0.0190 ha         1 ZD9       0.133000
     22 H12          2.3800    -1.0650    -1.1970 h1         1 ZD9       0.048700
     23 H12A         2.7930     0.6380    -1.3920 h1         1 ZD9       0.048700
     24 HN13         2.5740    -0.7520     1.2100 hn         1 ZD9       0.464000
     25 H16          7.4590    -1.1620     1.2600 hc         1 ZD9       0.045700
     26 H16A         7.2300    -1.5670    -0.4580 hc         1 ZD9       0.045700
     27 H16B         7.5500     0.1160     0.0240 hc         1 ZD9       0.045700
     28 H38          1.8670     2.8470    -1.4680 hc         1 ZD9       0.053367
     29 H38A         0.9760     3.7560    -0.2440 hc         1 ZD9       0.053367
     30 H38B         2.2830     2.6790     0.2490 hc         1 ZD9       0.053367
     31 H39         -5.8160     0.0060     1.5270 hc         1 ZD9       0.066700
     32 H39A        -5.7270     1.5490     0.6630 hc         1 ZD9       0.066700
     33 H39B        -6.1000     0.0630    -0.2260 hc         1 ZD9       0.066700
@<TRIPOS>BOND
     1     1     2 1   
     2     1     6 1   
     3     1     7 2   
     4     2     3 1   
     5     2    19 1   
     6     3     4 2   
     7     3    18 1   
     8     4     5 1   
     9     5     6 ar  
    10     5    11 ar  
    11     6     8 ar  
    12     8     9 ar  
    13     8    20 1   
    14     9    10 ar  
    15     9    12 1   
    16    10    11 ar  
    17    10    17 1   
    18    11    21 1   
    19    12    13 1   
    20    12    22 1   
    21    12    23 1   
    22    13    14 1   
    23    13    24 1   
    24    14    15 3   
    25    15    16 1   
    26    16    25 1   
    27    16    26 1   
    28    16    27 1   
    29    17    28 1   
    30    17    29 1   
    31    17    30 1   
    32    18    31 1   
    33    18    32 1   
    34    18    33 1   
@<TRIPOS>SUBSTRUCTURE
     1 ZD9         1 TEMP              0 ****  ****    0 ROOT
