@<TRIPOS>MOLECULE
ZD9
   33    34     1     0     0
SMALL
bcc


@<TRIPOS>ATOM
      1 C1          -2.5260    -1.5280    -0.0730 c          1 ZD9       0.723100
      2 N2          -3.7710    -0.9950     0.1710 ns         1 ZD9      -0.499400
      3 C3          -4.0310     0.3350     0.3380 cc         1 ZD9       0.507900
      4 N4          -3.1180     1.2380     0.2800 nd         1 ZD9      -0.629100
      5 C5          -1.8270     0.8280     0.0380 ca         1 ZD9       0.201400
      6 C6          -1.4820    -0.5170    -0.1410 ca         1 ZD9      -0.214600
      7 O7          -2.3660    -2.7280    -0.2100 o          1 ZD9      -0.615500
      8 C8          -0.1510    -0.8690    -0.3810 ca         1 ZD9      -0.049000
      9 C9           0.8380     0.0870    -0.4470 ca         1 ZD9      -0.125300
     10 C10          0.5010     1.4500    -0.2690 ca         1 ZD9      -0.005300
     11 C11         -0.8150     1.7940    -0.0330 ca         1 ZD9      -0.134000
     12 C12          2.2610    -0.3350    -0.6790 c3         1 ZD9       0.245100
     13 N13          3.0320    -0.2140     0.5570 n7         1 ZD9      -0.631800
     14 C14          4.3700    -0.3170     0.4640 c1         1 ZD9      -0.035200
     15 C15          5.5720    -0.3500     0.3610 c1         1 ZD9      -0.184100
     16 C16          7.0240    -0.4100     0.2500 c3         1 ZD9       0.016000
     17 C38          1.5530     2.5150    -0.3440 c3         1 ZD9      -0.058800
     18 C39         -5.4540     0.6930     0.5970 c3         1 ZD9      -0.143400
     19 HN2         -4.5430    -1.6480     0.2290 hn         1 ZD9       0.328500
     20 H8           0.1030    -1.9130    -0.5200 ha         1 ZD9       0.151000
     21 H11         -1.0890     2.8330     0.1040 ha         1 ZD9       0.151000
     22 H12          2.2830    -1.3570    -1.0710 h1         1 ZD9       0.048700
     23 H12A         2.7360     0.3030    -1.4270 h1         1 ZD9       0.048700
     24 HN13         2.6360    -0.7430     1.3220 hn         1 ZD9       0.408800
     25 H16          7.4670    -0.7160     1.1980 hc         1 ZD9       0.045700
     26 H16A         7.3420    -1.1310    -0.5040 hc         1 ZD9       0.045700
     27 H16B         7.4520     0.5580    -0.0120 hc         1 ZD9       0.045700
     28 H38          2.0640     2.5000    -1.3090 hc         1 ZD9       0.053367
     29 H38A         1.1220     3.5060    -0.2120 hc         1 ZD9       0.053367
     30 H38B         2.3150     2.3670     0.4210 hc         1 ZD9       0.053367
     31 H39         -5.8130     0.2060     1.5050 hc         1 ZD9       0.066700
     32 H39A        -5.5550     1.7680     0.7100 hc         1 ZD9       0.066700
     33 H39B        -6.0910     0.3610    -0.2240 hc         1 ZD9       0.066700
@<TRIPOS>BOND
     1     1     2 1   
     2     1     6 1   
     3     1     7 2   
     4     2     3 1   
     5     2    19 1   
     6     3     4 2   
     7     3    18 1   
     8     4     5 1   
     9     5     6 ar  
    10     5    11 ar  
    11     6     8 ar  
    12     8     9 ar  
    13     8    20 1   
    14     9    10 ar  
    15     9    12 1   
    16    10    11 ar  
    17    10    17 1   
    18    11    21 1   
    19    12    13 1   
    20    12    22 1   
    21    12    23 1   
    22    13    14 1   
    23    13    24 1   
    24    14    15 3   
    25    15    16 1   
    26    16    25 1   
    27    16    26 1   
    28    16    27 1   
    29    17    28 1   
    30    17    29 1   
    31    17    30 1   
    32    18    31 1   
    33    18    32 1   
    34    18    33 1   
@<TRIPOS>SUBSTRUCTURE
     1 ZD9         1 TEMP              0 ****  ****    0 ROOT
