@<TRIPOS>MOLECULE
ZDC
   27    27     1     0     0
SMALL
bcc


@<TRIPOS>ATOM
      1 C1          -1.0490     1.0680     0.7620 c6         1 ZDC       0.129100
      2 C1M         -1.0660     2.1920    -0.2650 c3         1 ZDC      -0.114100
      3 C2          -2.1590     0.0140     0.6180 c6         1 ZDC       0.076100
      4 C3          -1.9160    -0.9550    -0.5360 c6         1 ZDC       0.126100
      5 C4          -0.4940    -1.5230    -0.4490 c6         1 ZDC       0.107100
      6 C5           0.5200    -0.3970    -0.2890 c6         1 ZDC       0.168100
      7 C6           1.9430    -0.8800    -0.0970 c3         1 ZDC      -0.200400
      8 C7           2.9690     0.2680    -0.1120 c          1 ZDC       0.934600
      9 O2          -3.4340     0.5850     0.4270 oh         1 ZDC      -0.620800
     10 O3          -2.0620    -0.3570    -1.8030 oh         1 ZDC      -0.593800
     11 O4          -0.3830    -2.4010     0.6490 oh         1 ZDC      -0.572800
     12 O5           0.2000     0.4060     0.8340 os         1 ZDC      -0.367600
     13 O7A          2.8430     1.1230    -1.0100 o          1 ZDC      -0.845300
     14 O7B          3.8660     0.2350     0.7560 o          1 ZDC      -0.845300
     15 H1          -1.1700     1.5320     1.7480 h1         1 ZDC       0.045700
     16 H1M1        -0.9800     1.8430    -1.2910 hc         1 ZDC       0.043033
     17 H1M2        -1.9900     2.7660    -0.1890 hc         1 ZDC       0.043033
     18 H1M3        -0.2410     2.8790    -0.0700 hc         1 ZDC       0.043033
     19 H2          -2.1400    -0.5910     1.5360 h1         1 ZDC       0.048700
     20 H2O         -3.6320     1.1590     1.1740 ho         1 ZDC       0.404000
     21 H3          -2.6310    -1.7890    -0.4320 h1         1 ZDC       0.013700
     22 H3O         -2.8790     0.1520    -1.8050 ho         1 ZDC       0.413000
     23 H4          -0.2750    -2.0430    -1.3940 h1         1 ZDC       0.046700
     24 H4O         -0.9620    -3.1530     0.4920 ho         1 ZDC       0.376000
     25 H5           0.4940     0.1970    -1.2100 h1         1 ZDC       0.075700
     26 H61          2.0290    -1.4630     0.8210 hc         1 ZDC       0.034200
     27 H62          2.1840    -1.5630    -0.9200 hc         1 ZDC       0.034200
@<TRIPOS>BOND
     1     1     2 1   
     2     1     3 1   
     3     1    12 1   
     4     1    15 1   
     5     2    16 1   
     6     2    17 1   
     7     2    18 1   
     8     3     4 1   
     9     3     9 1   
    10     3    19 1   
    11     4     5 1   
    12     4    10 1   
    13     4    21 1   
    14     5     6 1   
    15     5    11 1   
    16     5    23 1   
    17     6     7 1   
    18     6    12 1   
    19     6    25 1   
    20     7     8 1   
    21     7    26 1   
    22     7    27 1   
    23     8    13 1   
    24     8    14 1   
    25     9    20 1   
    26    10    22 1   
    27    11    24 1   
@<TRIPOS>SUBSTRUCTURE
     1 ZDC         1 TEMP              0 ****  ****    0 ROOT
