@<TRIPOS>MOLECULE
ZDC
   27    27     1     0     0
SMALL
No Charge or Current Charge


@<TRIPOS>ATOM
      1 C1          -1.0860     1.0430     0.8450 c6         1 ZDC       0.152300
      2 C1M         -0.9980     2.2380    -0.1550 c3         1 ZDC      -0.114100
      3 C2          -2.2380    -0.0010     0.5890 c6         1 ZDC       0.099300
      4 C3          -1.9160    -0.9880    -0.5840 c6         1 ZDC       0.149300
      5 C4          -0.4750    -1.5800    -0.4430 c6         1 ZDC       0.130300
      6 C5           0.5470    -0.4030    -0.2690 c6         1 ZDC       0.191300
      7 C6           2.0130    -0.8890    -0.1010 c3         1 ZDC      -0.200400
      8 C7           2.9870     0.2720    -0.3130 c          1 ZDC       0.724000
      9 O2          -3.5120     0.6440     0.3530 oh         1 ZDC      -0.743000
     10 O3          -2.0970    -0.3100    -1.8320 oh         1 ZDC      -0.656000
     11 O4          -0.4220    -2.4970     0.6780 oh         1 ZDC      -0.695000
     12 O5           0.2040     0.3830     0.9020 os         1 ZDC      -0.414000
     13 O7A          3.3100     0.5430    -1.4600 o          1 ZDC      -0.740000
     14 O7B          3.3890     0.8870     0.6630 o          1 ZDC      -0.740000
     15 H1          -1.2580     1.4840     1.8370 h1         1 ZDC       0.045700
     16 H1M1        -0.9000     1.9240    -1.1980 hc         1 ZDC       0.043033
     17 H1M2        -1.8930     2.8680    -0.0880 hc         1 ZDC       0.043033
     18 H1M3        -0.1390     2.8760     0.0800 hc         1 ZDC       0.043033
     19 H2          -2.3110    -0.6130     1.5010 h1         1 ZDC       0.048700
     20 H2O         -3.8030     1.0390     1.2100 ho         1 ZDC       0.503000
     21 H3          -2.6340    -1.8190    -0.5330 h1         1 ZDC       0.013700
     22 H3O         -2.8230     0.3270    -1.6330 ho         1 ZDC       0.452000
     23 H4          -0.2280    -2.1180    -1.3700 h1         1 ZDC       0.046700
     24 H4O         -0.9260    -3.3010     0.4160 ho         1 ZDC       0.475000
     25 H5           0.5100     0.2290    -1.1680 h1         1 ZDC       0.075700
     26 H61          2.1170    -1.3030     0.9090 hc         1 ZDC       0.034200
     27 H62          2.1690    -1.6330    -0.8920 hc         1 ZDC       0.034200
@<TRIPOS>BOND
     1     1     2 1   
     2     1     3 1   
     3     1    12 1   
     4     1    15 1   
     5     2    16 1   
     6     2    17 1   
     7     2    18 1   
     8     3     4 1   
     9     3     9 1   
    10     3    19 1   
    11     4     5 1   
    12     4    10 1   
    13     4    21 1   
    14     5     6 1   
    15     5    11 1   
    16     5    23 1   
    17     6     7 1   
    18     6    12 1   
    19     6    25 1   
    20     7     8 1   
    21     7    26 1   
    22     7    27 1   
    23     8    13 1   
    24     8    14 1   
    25     9    20 1   
    26    10    22 1   
    27    11    24 1   
@<TRIPOS>SUBSTRUCTURE
     1 ZDC         1 TEMP              0 ****  ****    0 ROOT
