@<TRIPOS>MOLECULE
ZDF
   57    60     1     0     0
SMALL
abcg2


@<TRIPOS>ATOM
      1 C01         14.8740    -5.7260   -18.0650 ca         1 ZDF      -0.091500
      2 C02         14.2960    -6.3600   -16.9720 ca         1 ZDF      -0.073300
      3 C03         12.7790    -5.7670   -19.2820 ca         1 ZDF      -0.072300
      4 C04         11.9720    -5.4780   -20.5150 c3         1 ZDF      -0.046800
      5 C05         12.1970    -6.3910   -18.1790 ca         1 ZDF      -0.113500
      6 C06         12.9390    -6.6780   -17.0460 ca         1 ZDF      -0.091500
      7 C07         15.0770    -6.6750   -15.7100 c5         1 ZDF      -0.028000
      8 C08         14.6620    -5.6710   -14.6740 cc         1 ZDF       0.565300
      9 C09         14.8760    -8.1170   -15.2110 c5         1 ZDF      -0.070400
     10 C10         16.0670    -8.4060   -14.2820 c5         1 ZDF      -0.081400
     11 C11         17.1210    -7.3250   -14.6000 c5         1 ZDF      -0.081400
     12 C12         16.6070    -6.6200   -15.8550 c5         1 ZDF      -0.070400
     13 C13         14.4040    -3.8320   -13.7440 cd         1 ZDF       0.472300
     14 C14         14.3280    -2.4020   -13.3260 c3         1 ZDF       0.154500
     15 C15         15.0490    -0.2320   -14.1590 c3         1 ZDF       0.187800
     16 C16         16.6850    -1.8340   -13.3090 c3         1 ZDF       0.162800
     17 C17         16.8650    -1.2230   -11.9130 c3         1 ZDF       0.043600
     18 C18         19.8120    -2.6030   -10.6660 cc         1 ZDF       0.239900
     19 C19         20.3210    -1.3210   -10.9250 cc         1 ZDF      -0.229000
     20 C20         19.2400    -0.6240   -11.4130 cd         1 ZDF      -0.174000
     21 C21         14.1510    -0.0540   -15.3710 c3         1 ZDF      -0.094100
     22 C22         14.1270    -5.4380   -19.2020 ca         1 ZDF      -0.113500
     23 N01         14.0200    -5.9640   -13.5880 nd         1 ZDF      -0.376300
     24 N02         14.9230    -4.3360   -14.8100 nc         1 ZDF      -0.690000
     25 N03         15.3900    -1.6280   -13.9160 n3         1 ZDF      -0.736600
     26 N04         18.1960    -1.4730   -11.4120 na         1 ZDF       0.129800
     27 N05         18.5280    -2.6820   -10.9680 nd         1 ZDF      -0.527800
     28 O01         13.8500    -4.7520   -12.9660 os         1 ZDF      -0.101700
     29 H1          15.9190    -5.4450   -18.0440 ha         1 ZDF       0.116000
     30 H2          11.7490    -6.3960   -21.0620 hc         1 ZDF       0.041033
     31 H3          11.0180    -5.0140   -20.2670 hc         1 ZDF       0.041033
     32 H4          12.5030    -4.8120   -21.1940 hc         1 ZDF       0.041033
     33 H5          11.1450    -6.6530   -18.2050 ha         1 ZDF       0.110000
     34 H6          12.4500    -7.1560   -16.2050 ha         1 ZDF       0.116000
     35 H7          13.9120    -8.2790   -14.7290 hc         1 ZDF       0.056450
     36 H8          14.9080    -8.7710   -16.0850 hc         1 ZDF       0.056450
     37 H9          15.7710    -8.3640   -13.2340 hc         1 ZDF       0.046700
     38 H10         16.4550    -9.4090   -14.4580 hc         1 ZDF       0.046700
     39 H11         18.1170    -7.7410   -14.7510 hc         1 ZDF       0.046700
     40 H12         17.2020    -6.6130   -13.7760 hc         1 ZDF       0.046700
     41 H13         16.8890    -7.1820   -16.7490 hc         1 ZDF       0.056450
     42 H14         16.9970    -5.6080   -15.9680 hc         1 ZDF       0.056450
     43 H15         14.2780    -2.3530   -12.2290 h1         1 ZDF       0.063200
     44 H16         13.3640    -2.0200   -13.6760 h1         1 ZDF       0.063200
     45 H17         15.9850     0.3010   -14.3370 h1         1 ZDF       0.030200
     46 H18         14.5890     0.2440   -13.2810 h1         1 ZDF       0.030200
     47 H19         16.8900    -2.9060   -13.2530 h1         1 ZDF       0.074200
     48 H20         17.4450    -1.4090   -13.9710 h1         1 ZDF       0.074200
     49 H21         16.7230    -0.1430   -11.9400 h1         1 ZDF       0.061200
     50 H22         16.1490    -1.6310   -11.1990 h1         1 ZDF       0.061200
     51 H24         21.3240    -0.9570   -10.7750 ha         1 ZDF       0.145000
     52 H25         19.1380     0.3960   -11.7490 h4         1 ZDF       0.150000
     53 H26         13.9520     1.0050   -15.5370 hc         1 ZDF       0.042367
     54 H27         14.6260    -0.4560   -16.2660 hc         1 ZDF       0.042367
     55 H28         13.1850    -0.5470   -15.2520 hc         1 ZDF       0.042367
     56 H29         14.6070    -4.9440   -20.0380 ha         1 ZDF       0.110000
     57 H23         20.3310    -3.4620   -10.2680 h4         1 ZDF       0.037100
@<TRIPOS>BOND
     1     1     2 ar  
     2     1    22 ar  
     3     1    29 1   
     4     2     6 ar  
     5     2     7 1   
     6     3     4 1   
     7     3     5 ar  
     8     3    22 ar  
     9     4    30 1   
    10     4    31 1   
    11     4    32 1   
    12     5     6 ar  
    13     5    33 1   
    14     6    34 1   
    15     7     8 1   
    16     7     9 1   
    17     7    12 1   
    18     8    23 2   
    19     8    24 1   
    20     9    10 1   
    21     9    35 1   
    22     9    36 1   
    23    10    11 1   
    24    10    37 1   
    25    10    38 1   
    26    11    12 1   
    27    11    39 1   
    28    11    40 1   
    29    12    41 1   
    30    12    42 1   
    31    13    14 1   
    32    13    24 2   
    33    13    28 1   
    34    14    25 1   
    35    14    43 1   
    36    14    44 1   
    37    15    21 1   
    38    15    25 1   
    39    15    45 1   
    40    15    46 1   
    41    16    17 1   
    42    16    25 1   
    43    16    47 1   
    44    16    48 1   
    45    17    26 1   
    46    17    49 1   
    47    17    50 1   
    48    18    19 1   
    49    18    27 2   
    50    18    57 1   
    51    19    20 2   
    52    19    51 1   
    53    20    26 1   
    54    20    52 1   
    55    21    53 1   
    56    21    54 1   
    57    21    55 1   
    58    22    56 1   
    59    23    28 1   
    60    26    27 1   
@<TRIPOS>SUBSTRUCTURE
     1 ZDF         1 TEMP              0 ****  ****    0 ROOT
