@<TRIPOS>MOLECULE
ZDF
   57    60     1     0     0
SMALL
No Charge or Current Charge


@<TRIPOS>ATOM
      1 C01         14.1360    -5.8690   -18.4030 ca         1 ZDF      -0.091500
      2 C02         14.2950    -6.5230   -17.1580 ca         1 ZDF      -0.073300
      3 C03         11.9610    -6.9190   -18.7430 ca         1 ZDF      -0.072300
      4 C04         10.7190    -7.1380   -19.5940 c3         1 ZDF      -0.046800
      5 C05         12.0950    -7.5600   -17.5010 ca         1 ZDF      -0.113500
      6 C06         13.2430    -7.3600   -16.7160 ca         1 ZDF      -0.091500
      7 C07         15.5460    -6.2930   -16.2740 c5         1 ZDF      -0.028000
      8 C08         15.1400    -5.1860   -15.2940 cc         1 ZDF       0.565300
      9 C09         16.0050    -7.6360   -15.6190 c5         1 ZDF      -0.070400
     10 C10         17.4450    -7.3000   -15.1290 c5         1 ZDF      -0.081400
     11 C11         17.9570    -6.1830   -16.0960 c5         1 ZDF      -0.081400
     12 C12         16.8160    -6.0010   -17.1370 c5         1 ZDF      -0.070400
     13 C13         14.8190    -3.2570   -14.5850 cd         1 ZDF       0.472300
     14 C14         14.7420    -1.7470   -14.3880 c3         1 ZDF       0.154500
     15 C15         15.9040     0.4430   -13.9770 c3         1 ZDF       0.187800
     16 C16         16.8660    -1.6470   -13.0350 c3         1 ZDF       0.162800
     17 C17         16.2430    -1.6100   -11.6200 c3         1 ZDF       0.043600
     18 C18         17.9440    -3.7710    -9.4210 cc         1 ZDF       0.239900
     19 C19         18.6110    -2.5900    -9.0740 cc         1 ZDF      -0.229000
     20 C20         18.0790    -1.5960    -9.8370 cd         1 ZDF      -0.174000
     21 C21         15.3670     1.1590   -15.2310 c3         1 ZDF      -0.094100
     22 C22         12.9870    -6.0700   -19.1870 ca         1 ZDF      -0.113500
     23 N01         14.6680    -5.4070   -14.0750 nd         1 ZDF      -0.376300
     24 N02         15.2480    -3.8750   -15.6660 nc         1 ZDF      -0.690000
     25 N03         16.0410    -1.0300   -14.1190 n3         1 ZDF      -0.736600
     26 N04         17.1080    -2.2400   -10.6130 na         1 ZDF       0.129800
     27 N05         17.0260    -3.6030   -10.3510 nd         1 ZDF      -0.527800
     28 O01         14.4490    -4.1020   -13.5840 os         1 ZDF      -0.101700
     29 H1          14.8960    -5.1880   -18.7760 ha         1 ZDF       0.116000
     30 H2          10.8560    -7.9870   -20.2730 hc         1 ZDF       0.041033
     31 H3           9.8400    -7.3450   -18.9720 hc         1 ZDF       0.041033
     32 H4          10.4900    -6.2540   -20.2020 hc         1 ZDF       0.041033
     33 H5          11.3060    -8.2150   -17.1380 ha         1 ZDF       0.110000
     34 H6          13.3010    -7.8590   -15.7530 ha         1 ZDF       0.116000
     35 H7          15.3650    -7.9710   -14.7950 hc         1 ZDF       0.056450
     36 H8          16.0270    -8.4490   -16.3550 hc         1 ZDF       0.056450
     37 H9          17.4360    -6.9390   -14.0940 hc         1 ZDF       0.046700
     38 H10         18.0900    -8.1860   -15.1470 hc         1 ZDF       0.046700
     39 H11         18.9040    -6.4550   -16.5770 hc         1 ZDF       0.046700
     40 H12         18.1390    -5.2510   -15.5480 hc         1 ZDF       0.046700
     41 H13         16.9180    -6.7210   -17.9580 hc         1 ZDF       0.056450
     42 H14         16.8300    -5.0000   -17.5820 hc         1 ZDF       0.056450
     43 H15         14.0360    -1.5570   -13.5690 h1         1 ZDF       0.063200
     44 H16         14.2760    -1.3450   -15.2960 h1         1 ZDF       0.063200
     45 H17         16.8880     0.8760   -13.7520 h1         1 ZDF       0.030200
     46 H18         15.2470     0.6830   -13.1310 h1         1 ZDF       0.030200
     47 H19         17.0860    -2.6950   -13.2820 h1         1 ZDF       0.074200
     48 H20         17.8410    -1.1420   -12.9860 h1         1 ZDF       0.074200
     49 H21         16.0660    -0.5710   -11.3210 h1         1 ZDF       0.061200
     50 H22         15.2780    -2.1310   -11.6230 h1         1 ZDF       0.061200
     51 H24         19.3990    -2.5090    -8.3330 ha         1 ZDF       0.145000
     52 H25         18.2940    -0.5350    -9.8970 h4         1 ZDF       0.150000
     53 H26         15.4250     2.2460   -15.0950 hc         1 ZDF       0.042367
     54 H27         15.9610     0.8920   -16.1120 hc         1 ZDF       0.042367
     55 H28         14.3190     0.9020   -15.4200 hc         1 ZDF       0.042367
     56 H29         12.8950    -5.5590   -20.1430 ha         1 ZDF       0.110000
     57 H23         18.1060    -4.7620    -9.0160 h4         1 ZDF       0.037100
@<TRIPOS>BOND
     1     1     2 ar  
     2     1    22 ar  
     3     1    29 1   
     4     2     6 ar  
     5     2     7 1   
     6     3     4 1   
     7     3     5 ar  
     8     3    22 ar  
     9     4    30 1   
    10     4    31 1   
    11     4    32 1   
    12     5     6 ar  
    13     5    33 1   
    14     6    34 1   
    15     7     8 1   
    16     7     9 1   
    17     7    12 1   
    18     8    23 2   
    19     8    24 1   
    20     9    10 1   
    21     9    35 1   
    22     9    36 1   
    23    10    11 1   
    24    10    37 1   
    25    10    38 1   
    26    11    12 1   
    27    11    39 1   
    28    11    40 1   
    29    12    41 1   
    30    12    42 1   
    31    13    14 1   
    32    13    24 2   
    33    13    28 1   
    34    14    25 1   
    35    14    43 1   
    36    14    44 1   
    37    15    21 1   
    38    15    25 1   
    39    15    45 1   
    40    15    46 1   
    41    16    17 1   
    42    16    25 1   
    43    16    47 1   
    44    16    48 1   
    45    17    26 1   
    46    17    49 1   
    47    17    50 1   
    48    18    19 1   
    49    18    27 2   
    50    18    57 1   
    51    19    20 2   
    52    19    51 1   
    53    20    26 1   
    54    20    52 1   
    55    21    53 1   
    56    21    54 1   
    57    21    55 1   
    58    22    56 1   
    59    23    28 1   
    60    26    27 1   
@<TRIPOS>SUBSTRUCTURE
     1 ZDF         1 TEMP              0 ****  ****    0 ROOT
