@<TRIPOS>MOLECULE
ZDG
   62    65     1     0     0
SMALL
No Charge or Current Charge


@<TRIPOS>ATOM
      1 CAE          8.1800    -1.0940    -0.1730 c3         1 ZDG       0.150600
      2 CAD          7.4480    -2.1030     0.7320 c3         1 ZDG       0.011700
      3 CAA          5.9880    -1.9440     0.6800 c1         1 ZDG      -0.137100
      4 CAB          4.7860    -1.7820     0.6110 cg         1 ZDG      -0.095000
      5 CAC          3.3690    -1.5830     0.5230 ca         1 ZDG       0.033000
      6 CAN          2.8380    -0.7060    -0.4400 ca         1 ZDG      -0.089500
      7 CAM          1.4490    -0.5090    -0.5260 ca         1 ZDG      -0.090000
      8 CAJ          2.5030    -2.2580     1.4010 ca         1 ZDG      -0.089500
      9 CAK          1.1140    -2.0600     1.3140 ca         1 ZDG      -0.090000
     10 CAL          0.5760    -1.1890     0.3460 ca         1 ZDG      -0.020000
     11 CAO         -0.8670    -0.9610     0.2690 cc         1 ZDG      -0.107000
     12 CAS         -1.8360    -1.9290     0.1980 cd         1 ZDG      -0.103300
     13 CBB         -1.6430    -3.4300     0.1890 c3         1 ZDG      -0.015800
     14 NAP         -1.5620     0.2250     0.1450 na         1 ZDG       0.235000
     15 CAT         -0.9760     1.4820     0.2810 ca         1 ZDG       0.007800
     16 CAY         -0.9050     2.3750    -0.8130 ca         1 ZDG       0.134000
     17 ClA         -1.5410     1.9340    -2.4000 cl         1 ZDG      -0.157000
     18 CAX         -0.2970     3.6320    -0.6570 ca         1 ZDG      -0.098000
     19 CAW          0.2440     4.0040     0.5830 ca         1 ZDG       0.133000
     20 ClB          1.0070     5.5770     0.7710 cl         1 ZDG      -0.177000
     21 CAV          0.1810     3.1210     1.6730 ca         1 ZDG      -0.097000
     22 CAU         -0.4260     1.8620     1.5220 ca         1 ZDG      -0.075000
     23 NAQ         -2.9240     0.1030     0.1070 nc         1 ZDG      -0.495800
     24 CAR         -3.0870    -1.2250     0.1160 cd         1 ZDG       0.192500
     25 CBC         -4.4600    -1.8560     0.0520 c          1 ZDG       0.552600
     26 OBE         -4.6810    -3.0650     0.0740 o          1 ZDG      -0.567100
     27 NBD         -5.4860    -0.9140    -0.0330 ns         1 ZDG      -0.388300
     28 NBF         -6.8710    -1.2560    -0.1060 n3         1 ZDG      -0.442600
     29 CBG         -7.6340    -0.7730     1.0760 c6         1 ZDG       0.148800
     30 CBH         -9.1040    -1.2570     1.0310 c6         1 ZDG      -0.074400
     31 CBI         -9.7860    -0.8450    -0.2960 c6         1 ZDG      -0.078400
     32 CBJ         -8.9500    -1.3320    -1.5040 c6         1 ZDG      -0.074400
     33 CBK         -7.4840    -0.8460    -1.3980 c6         1 ZDG       0.148800
     34 H1           7.8520    -1.2290    -1.2120 h1         1 ZDG       0.072700
     35 H2           7.9290    -0.0710     0.1420 h1         1 ZDG       0.072700
     36 H4           7.7080    -3.1230     0.4270 hc         1 ZDG       0.079700
     37 H5           7.7850    -1.9760     1.7680 hc         1 ZDG       0.079700
     38 H6           3.5000    -0.1780    -1.1230 ha         1 ZDG       0.124500
     39 H7           1.0520     0.1660    -1.2800 ha         1 ZDG       0.126500
     40 H8           2.9050    -2.9330     2.1530 ha         1 ZDG       0.124500
     41 H9           0.4560    -2.5750     2.0100 ha         1 ZDG       0.126500
     42 H10         -1.9110    -3.8670     1.1570 hc         1 ZDG       0.052033
     43 H11         -2.2620    -3.9050    -0.5810 hc         1 ZDG       0.052033
     44 H12         -0.6060    -3.7080    -0.0310 hc         1 ZDG       0.052033
     45 H13         -0.2400     4.3150    -1.5000 ha         1 ZDG       0.151000
     46 H14          0.6040     3.4120     2.6310 ha         1 ZDG       0.142000
     47 H15         -0.4700     1.1800     2.3690 ha         1 ZDG       0.140000
     48 H16         -5.1960     0.0620    -0.0420 hn         1 ZDG       0.320500
     49 H17         -7.1670    -1.1370     2.0020 h1         1 ZDG       0.038450
     50 H18         -7.6170     0.3260     1.1130 h1         1 ZDG       0.038450
     51 H19         -9.1320    -2.3500     1.1390 hc         1 ZDG       0.051450
     52 H20         -9.6590    -0.8440     1.8840 hc         1 ZDG       0.051450
     53 H21        -10.8010    -1.2620    -0.3450 hc         1 ZDG       0.040200
     54 H22         -9.8920     0.2480    -0.3340 hc         1 ZDG       0.040200
     55 H23         -8.9690    -2.4290    -1.5500 hc         1 ZDG       0.051450
     56 H24         -9.3960    -0.9710    -2.4400 hc         1 ZDG       0.051450
     57 H25         -7.4590     0.2500    -1.4980 h1         1 ZDG       0.038450
     58 H26         -6.9100    -1.2620    -2.2390 h1         1 ZDG       0.038450
     59 O1           9.5950    -1.3380    -0.0450 os         1 ZDG      -0.396000
     60 N1          10.4800    -0.4950    -0.8170 no         1 ZDG       0.788000
     61 O2           9.9720     0.3780    -1.5340 o          1 ZDG      -0.366000
     62 O3          11.6870    -0.7240    -0.6900 o          1 ZDG      -0.366000
@<TRIPOS>BOND
     1     1     2 1   
     2     1    34 1   
     3     1    35 1   
     4     1    59 1   
     5     2     3 1   
     6     2    36 1   
     7     2    37 1   
     8     3     4 3   
     9     4     5 1   
    10     5     6 ar  
    11     5     8 ar  
    12     6     7 ar  
    13     6    38 1   
    14     7    10 ar  
    15     7    39 1   
    16     8     9 ar  
    17     8    40 1   
    18     9    10 ar  
    19     9    41 1   
    20    10    11 1   
    21    11    12 2   
    22    11    14 1   
    23    12    13 1   
    24    12    24 1   
    25    13    42 1   
    26    13    43 1   
    27    13    44 1   
    28    14    15 1   
    29    14    23 1   
    30    15    16 ar  
    31    15    22 ar  
    32    16    17 1   
    33    16    18 ar  
    34    18    19 ar  
    35    18    45 1   
    36    19    20 1   
    37    19    21 ar  
    38    21    22 ar  
    39    21    46 1   
    40    22    47 1   
    41    23    24 2   
    42    24    25 1   
    43    25    26 2   
    44    25    27 1   
    45    27    28 1   
    46    27    48 1   
    47    28    29 1   
    48    28    33 1   
    49    29    30 1   
    50    29    49 1   
    51    29    50 1   
    52    30    31 1   
    53    30    51 1   
    54    30    52 1   
    55    31    32 1   
    56    31    53 1   
    57    31    54 1   
    58    32    33 1   
    59    32    55 1   
    60    32    56 1   
    61    33    57 1   
    62    33    58 1   
    63    59    60 1   
    64    60    61 1   
    65    60    62 1   
@<TRIPOS>SUBSTRUCTURE
     1 ZDG         1 TEMP              0 ****  ****    0 ROOT
