@<TRIPOS>MOLECULE
ZDG
   62    65     1     0     0
SMALL
abcg2


@<TRIPOS>ATOM
      1 CAE          7.9940    -1.2120    -0.5410 c3         1 ZDG       0.150600
      2 CAD          7.4070    -1.6080     0.8070 c3         1 ZDG       0.011700
      3 CAA          5.9570    -1.5010     0.7670 c1         1 ZDG      -0.137100
      4 CAB          4.7560    -1.4150     0.7190 cg         1 ZDG      -0.095000
      5 CAC          3.3360    -1.3190     0.6600 ca         1 ZDG       0.033000
      6 CAN          2.7180    -0.5580    -0.3370 ca         1 ZDG      -0.089500
      7 CAM          1.3400    -0.4720    -0.3960 ca         1 ZDG      -0.090000
      8 CAJ          2.5410    -1.9890     1.5940 ca         1 ZDG      -0.089500
      9 CAK          1.1620    -1.8950     1.5330 ca         1 ZDG      -0.090000
     10 CAL          0.5460    -1.1350     0.5400 ca         1 ZDG      -0.020000
     11 CAO         -0.9140    -1.0510     0.4770 cc         1 ZDG      -0.107000
     12 CAS         -1.8710    -2.0400     0.3880 cd         1 ZDG      -0.103300
     13 CBB         -1.6370    -3.5100     0.3310 c3         1 ZDG      -0.015800
     14 NAP         -1.5820     0.1370     0.4590 na         1 ZDG       0.235000
     15 CAT         -1.0280     1.4290     0.5840 ca         1 ZDG       0.007800
     16 CAY         -0.9930     2.2900    -0.5080 ca         1 ZDG       0.134000
     17 CLA         -1.5880     1.7640    -2.0340 cl         1 ZDG      -0.157000
     18 CAX         -0.4470     3.5570    -0.3910 ca         1 ZDG      -0.098000
     19 CAW          0.0750     3.9460     0.8330 ca         1 ZDG       0.133000
     20 CLB          0.7630     5.5210     0.9820 cl         1 ZDG      -0.177000
     21 CAV          0.0620     3.0990     1.9310 ca         1 ZDG      -0.097000
     22 CAU         -0.4980     1.8400     1.7970 ca         1 ZDG      -0.075000
     23 NAQ         -2.8900    -0.0180     0.3640 nc         1 ZDG      -0.495800
     24 CAR         -3.0870    -1.3230     0.3180 cd         1 ZDG       0.192500
     25 CBC         -4.4540    -1.8820     0.1770 c          1 ZDG       0.552600
     26 OBE         -4.6460    -3.0850     0.1540 o          1 ZDG      -0.567100
     27 NBD         -5.4200    -0.9490     0.0750 ns         1 ZDG      -0.388300
     28 NBF         -6.7360    -1.2930    -0.1520 n3         1 ZDG      -0.442600
     29 CBG         -7.5920    -0.8170     0.9290 c6         1 ZDG       0.148800
     30 CBH         -9.0310    -1.2560     0.7040 c6         1 ZDG      -0.074400
     31 CBI         -9.5370    -0.7910    -0.6550 c6         1 ZDG      -0.078400
     32 CBJ         -8.5920    -1.2650    -1.7510 c6         1 ZDG      -0.074400
     33 CBK         -7.1660    -0.8220    -1.4640 c6         1 ZDG       0.148800
     34 H1           7.6280    -1.8690    -1.3300 h1         1 ZDG       0.072700
     35 H2           7.7470    -0.1780    -0.7830 h1         1 ZDG       0.072700
     36 H4           7.6890    -2.6340     1.0560 hc         1 ZDG       0.079700
     37 H5           7.8010    -0.9620     1.5960 hc         1 ZDG       0.079700
     38 H6           3.3220    -0.0430    -1.0720 ha         1 ZDG       0.124500
     39 H7           0.8800     0.0980    -1.1940 ha         1 ZDG       0.126500
     40 H8           3.0070    -2.5770     2.3730 ha         1 ZDG       0.124500
     41 H9           0.5580    -2.4030     2.2740 ha         1 ZDG       0.126500
     42 H10         -1.9760    -4.0070     1.2400 hc         1 ZDG       0.052033
     43 H11         -2.1700    -3.9640    -0.5020 hc         1 ZDG       0.052033
     44 H12         -0.5760    -3.7270     0.2100 hc         1 ZDG       0.052033
     45 H13         -0.4210     4.2210    -1.2440 ha         1 ZDG       0.151000
     46 H14          0.4740     3.4150     2.8780 ha         1 ZDG       0.142000
     47 H15         -0.5250     1.1680     2.6440 ha         1 ZDG       0.140000
     48 H16         -5.1630     0.0330     0.0810 hn         1 ZDG       0.320500
     49 H17         -7.2130    -1.2240     1.8680 h1         1 ZDG       0.038450
     50 H18         -7.5530     0.2830     1.0120 h1         1 ZDG       0.038450
     51 H19         -9.0900    -2.3460     0.7680 hc         1 ZDG       0.051450
     52 H20         -9.6510    -0.8570     1.5090 hc         1 ZDG       0.051450
     53 H21        -10.5490    -1.1590    -0.8350 hc         1 ZDG       0.040200
     54 H22         -9.5920     0.3020    -0.6700 hc         1 ZDG       0.040200
     55 H23         -8.6230    -2.3560    -1.8230 hc         1 ZDG       0.051450
     56 H24         -8.8940    -0.8720    -2.7240 hc         1 ZDG       0.051450
     57 H25         -7.1050     0.2780    -1.5280 h1         1 ZDG       0.038450
     58 H26         -6.4840    -1.2300    -2.2120 h1         1 ZDG       0.038450
     59 O1           9.4180    -1.3620    -0.3830 os         1 ZDG      -0.396000
     60 N1          10.1660    -1.0840    -1.4670 no         1 ZDG       0.788000
     61 O2           9.6170    -0.7340    -2.4700 o          1 ZDG      -0.366000
     62 O3          11.3360    -1.2280    -1.2790 o          1 ZDG      -0.366000
@<TRIPOS>BOND
     1     1     2 1   
     2     1    34 1   
     3     1    35 1   
     4     1    59 1   
     5     2     3 1   
     6     2    36 1   
     7     2    37 1   
     8     3     4 3   
     9     4     5 1   
    10     5     6 ar  
    11     5     8 ar  
    12     6     7 ar  
    13     6    38 1   
    14     7    10 ar  
    15     7    39 1   
    16     8     9 ar  
    17     8    40 1   
    18     9    10 ar  
    19     9    41 1   
    20    10    11 1   
    21    11    12 2   
    22    11    14 1   
    23    12    13 1   
    24    12    24 1   
    25    13    42 1   
    26    13    43 1   
    27    13    44 1   
    28    14    15 1   
    29    14    23 1   
    30    15    16 ar  
    31    15    22 ar  
    32    16    17 1   
    33    16    18 ar  
    34    18    19 ar  
    35    18    45 1   
    36    19    20 1   
    37    19    21 ar  
    38    21    22 ar  
    39    21    46 1   
    40    22    47 1   
    41    23    24 2   
    42    24    25 1   
    43    25    26 2   
    44    25    27 1   
    45    27    28 1   
    46    27    48 1   
    47    28    29 1   
    48    28    33 1   
    49    29    30 1   
    50    29    49 1   
    51    29    50 1   
    52    30    31 1   
    53    30    51 1   
    54    30    52 1   
    55    31    32 1   
    56    31    53 1   
    57    31    54 1   
    58    32    33 1   
    59    32    55 1   
    60    32    56 1   
    61    33    57 1   
    62    33    58 1   
    63    59    60 1   
    64    60    61 1   
    65    60    62 1   
@<TRIPOS>SUBSTRUCTURE
     1 ZDG         1 TEMP              0 ****  ****    0 ROOT
