@<TRIPOS>MOLECULE
ZDJ
   26    26     1     0     0
SMALL
No Charge or Current Charge


@<TRIPOS>ATOM
      1 O           -5.6800   -59.9200   -28.5510 o          1 ZDJ      -0.837800
      2 C           -4.5350   -59.8040   -28.1260 c          1 ZDJ       0.902600
      3 CA          -3.3970   -59.3260   -29.1270 c3         1 ZDJ       0.015500
      4 N           -2.6300   -58.0780   -28.7420 n8         1 ZDJ      -0.883800
      5 CB          -2.4280   -60.5020   -29.4250 c3         1 ZDJ      -0.017100
      6 CG          -1.4610   -60.2340   -30.5790 ca         1 ZDJ      -0.053300
      7 CD2         -0.0840   -60.0680   -30.3330 ca         1 ZDJ      -0.089000
      8 CE2          0.8020   -59.8380   -31.4000 ca         1 ZDJ      -0.224000
      9 CZ           0.3210   -59.7750   -32.7160 ca         1 ZDJ       0.103100
     10 OH           1.2020   -59.5510   -33.7330 oh         1 ZDJ      -0.512100
     11 CE1         -1.0560   -59.9430   -32.9780 ca         1 ZDJ      -0.115300
     12 CME         -1.5980   -59.8800   -34.4040 c3         1 ZDJ      -0.024800
     13 CD1         -1.9390   -60.1740   -31.9030 ca         1 ZDJ      -0.096000
     14 OXT         -4.2620   -59.9330   -26.9370 o          1 ZDJ      -0.837800
     15 H1          -3.9110   -59.0890   -30.0680 h1         1 ZDJ       0.040700
     16 H2          -3.2890   -57.3030   -28.6140 hn         1 ZDJ       0.325300
     17 H           -2.2260   -58.2160   -27.8090 hn         1 ZDJ       0.325300
     18 H5          -3.0250   -61.3910   -29.6640 hc         1 ZDJ       0.050200
     19 H6          -1.8770   -60.7530   -28.5110 hc         1 ZDJ       0.050200
     20 H7           0.2980   -60.1150   -29.3160 ha         1 ZDJ       0.127000
     21 H8           1.8620   -59.7100   -31.1950 ha         1 ZDJ       0.112000
     22 H9           2.0980   -59.4620   -33.3480 ho         1 ZDJ       0.408000
     23 H10         -1.1420   -60.6540   -35.0320 hc         1 ZDJ       0.031700
     24 H11         -2.6840   -60.0280   -34.4350 hc         1 ZDJ       0.031700
     25 H12         -1.3850   -58.9070   -34.8620 hc         1 ZDJ       0.031700
     26 H13         -3.0010   -60.3090   -32.0950 ha         1 ZDJ       0.136000
@<TRIPOS>BOND
     1     1     2 1   
     2     2     3 1   
     3     2    14 1   
     4     3     4 1   
     5     3     5 1   
     6     3    15 1   
     7     4    16 1   
     8     4    17 1   
     9     5     6 1   
    10     5    18 1   
    11     5    19 1   
    12     6     7 ar  
    13     6    13 ar  
    14     7     8 ar  
    15     7    20 1   
    16     8     9 ar  
    17     8    21 1   
    18     9    10 1   
    19     9    11 ar  
    20    10    22 1   
    21    11    12 1   
    22    11    13 ar  
    23    12    23 1   
    24    12    24 1   
    25    12    25 1   
    26    13    26 1   
@<TRIPOS>SUBSTRUCTURE
     1 ZDJ         1 TEMP              0 ****  ****    0 ROOT
