@<TRIPOS>MOLECULE
ZDJ
   26    26     1     0     0
SMALL
bcc


@<TRIPOS>ATOM
      1 O           -5.3090   -60.5530   -28.5640 o          1 ZDJ      -0.837800
      2 C           -4.4710   -59.7360   -28.1270 c          1 ZDJ       0.902600
      3 CA          -3.3760   -59.2940   -29.1350 c3         1 ZDJ       0.015500
      4 N           -2.5480   -58.1740   -28.7200 n8         1 ZDJ      -0.883800
      5 CB          -2.4900   -60.5040   -29.4710 c3         1 ZDJ      -0.017100
      6 CG          -1.5050   -60.2490   -30.5760 ca         1 ZDJ      -0.053300
      7 CD2         -0.1510   -60.0720   -30.3290 ca         1 ZDJ      -0.089000
      8 CE2          0.7430   -59.8320   -31.3650 ca         1 ZDJ      -0.224000
      9 CZ           0.2910   -59.7630   -32.6760 ca         1 ZDJ       0.103100
     10 OH           1.1180   -59.5360   -33.7240 oh         1 ZDJ      -0.512100
     11 CE1         -1.0690   -59.9340   -32.9620 ca         1 ZDJ      -0.115300
     12 CME         -1.5650   -59.8640   -34.3760 c3         1 ZDJ      -0.024800
     13 CD1         -1.9330   -60.1750   -31.9010 ca         1 ZDJ      -0.096000
     14 OXT         -4.4190   -59.2620   -26.9760 o          1 ZDJ      -0.837800
     15 H1          -3.8860   -58.9990   -30.0610 h1         1 ZDJ       0.040700
     16 H2          -3.1440   -57.3670   -28.5790 hn         1 ZDJ       0.325300
     17 H           -2.1850   -58.3800   -27.7950 hn         1 ZDJ       0.325300
     18 H5          -3.1400   -61.3380   -29.7440 hc         1 ZDJ       0.050200
     19 H6          -1.9530   -60.8120   -28.5670 hc         1 ZDJ       0.050200
     20 H7           0.2220   -60.1240   -29.3120 ha         1 ZDJ       0.127000
     21 H8           1.7980   -59.6990   -31.1470 ha         1 ZDJ       0.112000
     22 H9           2.0270   -59.4470   -33.4190 ho         1 ZDJ       0.408000
     23 H10         -1.1070   -60.6290   -35.0060 hc         1 ZDJ       0.031700
     24 H11         -2.6440   -60.0070   -34.4150 hc         1 ZDJ       0.031700
     25 H12         -1.3420   -58.9000   -34.8350 hc         1 ZDJ       0.031700
     26 H13         -2.9870   -60.3130   -32.1200 ha         1 ZDJ       0.136000
@<TRIPOS>BOND
     1     1     2 1   
     2     2     3 1   
     3     2    14 1   
     4     3     4 1   
     5     3     5 1   
     6     3    15 1   
     7     4    16 1   
     8     4    17 1   
     9     5     6 1   
    10     5    18 1   
    11     5    19 1   
    12     6     7 ar  
    13     6    13 ar  
    14     7     8 ar  
    15     7    20 1   
    16     8     9 ar  
    17     8    21 1   
    18     9    10 1   
    19     9    11 ar  
    20    10    22 1   
    21    11    12 1   
    22    11    13 ar  
    23    12    23 1   
    24    12    24 1   
    25    12    25 1   
    26    13    26 1   
@<TRIPOS>SUBSTRUCTURE
     1 ZDJ         1 TEMP              0 ****  ****    0 ROOT
