@<TRIPOS>MOLECULE
ZDK
   55    58     1     0     0
SMALL
abcg2


@<TRIPOS>ATOM
      1 C01         14.4620    -8.1000   -12.8210 ca         1 ZDK      -0.105000
      2 C02         13.4270    -8.5040   -13.6560 ca         1 ZDK      -0.112500
      3 C03         12.8590    -7.6030   -14.5420 ca         1 ZDK      -0.092500
      4 C04         13.3120    -6.2870   -14.6140 ca         1 ZDK      -0.079300
      5 C05         14.3480    -5.8900   -13.7750 ca         1 ZDK      -0.092500
      6 C06         14.9190    -6.7930   -12.8840 ca         1 ZDK      -0.112500
      7 C07         12.6520    -5.3680   -15.6250 c3         1 ZDK       0.008600
      8 C08         13.1540    -5.6230   -17.0330 ca         1 ZDK      -0.079300
      9 C09         12.2430    -5.8210   -18.0650 ca         1 ZDK      -0.092500
     10 C10         12.6810    -6.0510   -19.3630 ca         1 ZDK      -0.112500
     11 C11         14.0400    -6.0810   -19.6430 ca         1 ZDK      -0.105000
     12 C12         14.9560    -5.8840   -18.6160 ca         1 ZDK      -0.112500
     13 C13         14.5170    -5.6590   -17.3200 ca         1 ZDK      -0.092500
     14 C14         12.7690    -3.9200   -15.2700 cc         1 ZDK       0.560300
     15 C15         13.5180    -1.9960   -15.0330 cd         1 ZDK       0.434300
     16 C16         14.3230    -0.7320   -14.9470 c3         1 ZDK       0.155500
     17 C17         14.9650    -0.9720   -12.6180 c6         1 ZDK       0.172800
     18 C18         16.1070    -0.6900   -11.6540 c6         1 ZDK      -0.071900
     19 C19         17.3340    -1.5390   -11.9770 c6         1 ZDK      -0.063700
     20 C20         17.7030    -1.3600   -13.4470 c6         1 ZDK      -0.071900
     21 C21         16.5080    -1.6330   -14.3460 c6         1 ZDK       0.172800
     22 C22         18.4740    -1.1810   -11.0410 c3         1 ZDK       0.162600
     23 C23         20.6960    -1.6730   -10.5070 c3         1 ZDK       0.147900
     24 N01         11.8020    -3.2840   -14.6840 nd         1 ZDK      -0.373300
     25 N02         13.8640    -3.1460   -15.5140 nc         1 ZDK      -0.712000
     26 N03         15.3980    -0.7670   -13.9880 n3         1 ZDK      -0.730600
     27 O01         12.2930    -2.0180   -14.5230 os         1 ZDK      -0.088700
     28 O02         19.5900    -1.9940   -11.3060 os         1 ZDK      -0.455000
     29 H01         14.9060    -8.8000   -12.1250 ha         1 ZDK       0.112500
     30 H02         13.0580    -9.5210   -13.6140 ha         1 ZDK       0.113000
     31 H05         12.0490    -7.9250   -15.1870 ha         1 ZDK       0.116750
     32 H03         14.7250    -4.8750   -13.8030 ha         1 ZDK       0.116750
     33 H04         15.7230    -6.4660   -12.2380 ha         1 ZDK       0.113000
     34 H11         11.5830    -5.5950   -15.6100 hc         1 ZDK       0.080700
     35 H07         11.1810    -5.7990   -17.8530 ha         1 ZDK       0.116750
     36 H08         11.9590    -6.2080   -20.1540 ha         1 ZDK       0.113000
     37 H09         14.3840    -6.2610   -20.6530 ha         1 ZDK       0.112500
     38 H10         16.0180    -5.9090   -18.8260 ha         1 ZDK       0.113000
     39 H06         15.2420    -5.5170   -16.5290 ha         1 ZDK       0.116750
     40 H13         14.7360    -0.5310   -15.9380 h1         1 ZDK       0.082700
     41 H12         13.6490     0.0930   -14.7060 h1         1 ZDK       0.082700
     42 H15         14.1300    -0.2990   -12.4080 h1         1 ZDK       0.040200
     43 H14         14.5990    -2.0000   -12.4480 h1         1 ZDK       0.040200
     44 H16         16.3680     0.3720   -11.7140 hc         1 ZDK       0.051700
     45 H17         15.7670    -0.8800   -10.6330 hc         1 ZDK       0.051700
     46 H           17.0680    -2.5920   -11.8140 hc         1 ZDK       0.056700
     47 H19         18.5170    -2.0320   -13.7280 hc         1 ZDK       0.051700
     48 H18         18.0560    -0.3370   -13.6140 hc         1 ZDK       0.051700
     49 H21         16.2410    -2.7000   -14.2720 h1         1 ZDK       0.040200
     50 H20         16.7750    -1.4460   -15.3880 h1         1 ZDK       0.040200
     51 H23         18.7310    -0.1180   -11.1700 h1         1 ZDK       0.021700
     52 H22         18.1470    -1.3020    -9.9970 h1         1 ZDK       0.021700
     53 H25         21.5110    -2.3470   -10.7700 h1         1 ZDK       0.027700
     54 H26         21.0370    -0.6420   -10.6650 h1         1 ZDK       0.027700
     55 H24         20.4840    -1.7920    -9.4370 h1         1 ZDK       0.027700
@<TRIPOS>BOND
     1     1     2 ar  
     2     1     6 ar  
     3     1    29 1   
     4     2     3 ar  
     5     2    30 1   
     6     3     4 ar  
     7     3    31 1   
     8     4     5 ar  
     9     4     7 1   
    10     5     6 ar  
    11     5    32 1   
    12     6    33 1   
    13     7     8 1   
    14     7    14 1   
    15     7    34 1   
    16     8     9 ar  
    17     8    13 ar  
    18     9    10 ar  
    19     9    35 1   
    20    10    11 ar  
    21    10    36 1   
    22    11    12 ar  
    23    11    37 1   
    24    12    13 ar  
    25    12    38 1   
    26    13    39 1   
    27    14    24 2   
    28    14    25 1   
    29    15    16 1   
    30    15    25 2   
    31    15    27 1   
    32    16    26 1   
    33    16    40 1   
    34    16    41 1   
    35    17    18 1   
    36    17    26 1   
    37    17    42 1   
    38    17    43 1   
    39    18    19 1   
    40    18    44 1   
    41    18    45 1   
    42    19    20 1   
    43    19    22 1   
    44    19    46 1   
    45    20    21 1   
    46    20    47 1   
    47    20    48 1   
    48    21    26 1   
    49    21    49 1   
    50    21    50 1   
    51    22    28 1   
    52    22    51 1   
    53    22    52 1   
    54    23    28 1   
    55    23    53 1   
    56    23    54 1   
    57    23    55 1   
    58    24    27 1   
@<TRIPOS>SUBSTRUCTURE
     1 ZDK         1 TEMP              0 ****  ****    0 ROOT
