@<TRIPOS>MOLECULE
ZDK
   55    58     1     0     0
SMALL
No Charge or Current Charge


@<TRIPOS>ATOM
      1 C01         14.6500    -8.2740   -12.9500 ca         1 ZDK      -0.105000
      2 C02         13.5090    -8.6500   -13.6760 ca         1 ZDK      -0.112500
      3 C03         12.8820    -7.7280   -14.5320 ca         1 ZDK      -0.092500
      4 C04         13.3880    -6.4180   -14.6700 ca         1 ZDK      -0.079300
      5 C05         14.5410    -6.0510   -13.9390 ca         1 ZDK      -0.092500
      6 C06         15.1660    -6.9740   -13.0830 ca         1 ZDK      -0.112500
      7 C07         12.6810    -5.4360   -15.6160 c3         1 ZDK       0.008600
      8 C08         13.1030    -5.6670   -17.0750 ca         1 ZDK      -0.079300
      9 C09         12.1250    -5.7460   -18.0890 ca         1 ZDK      -0.092500
     10 C10         12.5000    -5.9610   -19.4260 ca         1 ZDK      -0.112500
     11 C11         13.8560    -6.0990   -19.7640 ca         1 ZDK      -0.105000
     12 C12         14.8370    -6.0190   -18.7630 ca         1 ZDK      -0.112500
     13 C13         14.4630    -5.8040   -17.4250 ca         1 ZDK      -0.092500
     14 C14         12.7700    -3.9840   -15.1760 cc         1 ZDK       0.560300
     15 C15         13.4840    -2.0390   -14.9990 cd         1 ZDK       0.434300
     16 C16         14.2960    -0.7510   -15.0690 c3         1 ZDK       0.155500
     17 C17         14.9710    -0.5870   -12.6710 c6         1 ZDK       0.172800
     18 C18         16.1450    -0.2920   -11.7070 c6         1 ZDK      -0.071900
     19 C19         17.2940    -1.3180   -11.8870 c6         1 ZDK      -0.063700
     20 C20         17.7180    -1.3570   -13.3810 c6         1 ZDK      -0.071900
     21 C21         16.5030    -1.6230   -14.3010 c6         1 ZDK       0.172800
     22 C22         18.4850    -1.0060   -10.9380 c3         1 ZDK       0.162600
     23 C23         20.6230    -1.8690   -10.2110 c3         1 ZDK       0.147900
     24 N01         11.9060    -3.4450   -14.3300 nd         1 ZDK      -0.373300
     25 N02         13.7640    -3.1620   -15.6300 nc         1 ZDK      -0.712000
     26 N03         15.4260    -0.6150   -14.0900 n3         1 ZDK      -0.730600
     27 O01         12.3810    -2.1210   -14.2030 os         1 ZDK      -0.088700
     28 O02         19.4660    -2.0520   -11.0430 os         1 ZDK      -0.455000
     29 H01         15.1350    -8.9870   -12.2870 ha         1 ZDK       0.112500
     30 H02         13.1090    -9.6570   -13.5760 ha         1 ZDK       0.113000
     31 H05         12.0010    -8.0340   -15.0920 ha         1 ZDK       0.116750
     32 H03         14.9650    -5.0550   -14.0320 ha         1 ZDK       0.116750
     33 H04         16.0530    -6.6820   -12.5250 ha         1 ZDK       0.113000
     34 H11         11.6130    -5.6790   -15.5570 hc         1 ZDK       0.080700
     35 H07         11.0700    -5.6410   -17.8440 ha         1 ZDK       0.116750
     36 H08         11.7380    -6.0210   -20.2010 ha         1 ZDK       0.113000
     37 H09         14.1460    -6.2650   -20.8000 ha         1 ZDK       0.112500
     38 H10         15.8880    -6.1220   -19.0230 ha         1 ZDK       0.113000
     39 H06         15.2350    -5.7390   -16.6630 ha         1 ZDK       0.116750
     40 H13         14.6820    -0.6660   -16.0930 h1         1 ZDK       0.082700
     41 H12         13.5940     0.0830   -14.9410 h1         1 ZDK       0.082700
     42 H15         14.1990     0.1850   -12.5330 h1         1 ZDK       0.040200
     43 H14         14.5180    -1.5510   -12.3940 h1         1 ZDK       0.040200
     44 H16         16.5170     0.7260   -11.8910 hc         1 ZDK       0.051700
     45 H17         15.7800    -0.3100   -10.6710 hc         1 ZDK       0.051700
     46 H           16.9190    -2.3110   -11.5990 hc         1 ZDK       0.056700
     47 H19         18.4730    -2.1370   -13.5440 hc         1 ZDK       0.051700
     48 H18         18.1850    -0.4030   -13.6630 hc         1 ZDK       0.051700
     49 H21         16.1250    -2.6370   -14.1010 h1         1 ZDK       0.040200
     50 H20         16.8430    -1.6060   -15.3470 h1         1 ZDK       0.040200
     51 H23         18.9210    -0.0360   -11.2130 h1         1 ZDK       0.021700
     52 H22         18.1110    -0.9360    -9.9080 h1         1 ZDK       0.021700
     53 H25         21.3240    -2.7020   -10.3430 h1         1 ZDK       0.027700
     54 H26         21.1450    -0.9380   -10.4690 h1         1 ZDK       0.027700
     55 H24         20.3380    -1.8260    -9.1510 h1         1 ZDK       0.027700
@<TRIPOS>BOND
     1     1     2 ar  
     2     1     6 ar  
     3     1    29 1   
     4     2     3 ar  
     5     2    30 1   
     6     3     4 ar  
     7     3    31 1   
     8     4     5 ar  
     9     4     7 1   
    10     5     6 ar  
    11     5    32 1   
    12     6    33 1   
    13     7     8 1   
    14     7    14 1   
    15     7    34 1   
    16     8     9 ar  
    17     8    13 ar  
    18     9    10 ar  
    19     9    35 1   
    20    10    11 ar  
    21    10    36 1   
    22    11    12 ar  
    23    11    37 1   
    24    12    13 ar  
    25    12    38 1   
    26    13    39 1   
    27    14    24 2   
    28    14    25 1   
    29    15    16 1   
    30    15    25 2   
    31    15    27 1   
    32    16    26 1   
    33    16    40 1   
    34    16    41 1   
    35    17    18 1   
    36    17    26 1   
    37    17    42 1   
    38    17    43 1   
    39    18    19 1   
    40    18    44 1   
    41    18    45 1   
    42    19    20 1   
    43    19    22 1   
    44    19    46 1   
    45    20    21 1   
    46    20    47 1   
    47    20    48 1   
    48    21    26 1   
    49    21    49 1   
    50    21    50 1   
    51    22    28 1   
    52    22    51 1   
    53    22    52 1   
    54    23    28 1   
    55    23    53 1   
    56    23    54 1   
    57    23    55 1   
    58    24    27 1   
@<TRIPOS>SUBSTRUCTURE
     1 ZDK         1 TEMP              0 ****  ****    0 ROOT
