@<TRIPOS>MOLECULE
ZDL
   19    19     1     0     0
SMALL
abcg2


@<TRIPOS>ATOM
      1 C01         27.2500   -50.1110    32.9610 c3         1 ZDL       0.155100
      2 N02         26.9090   -51.5130    33.1410 n3         1 ZDL      -0.721600
      3 C03         28.0580   -52.3250    33.5510 c5         1 ZDL       0.134300
      4 C04         28.5930   -52.9970    32.2630 c5         1 ZDL       0.134300
      5 N05         27.7290   -52.4680    31.2200 n3         1 ZDL      -0.721600
      6 C06         27.5680   -53.3320    30.0800 c3         1 ZDL       0.155100
      7 C07         26.4920   -52.1410    31.9100 c5         1 ZDL       0.379000
      8 H1          27.5680   -49.6870    33.9140 h1         1 ZDL       0.033033
      9 H2          28.0460   -49.9300    32.2270 h1         1 ZDL       0.033033
     10 H3          26.3660   -49.5590    32.6400 h1         1 ZDL       0.033033
     11 H5          27.7410   -53.0880    34.2660 h1         1 ZDL       0.047450
     12 H6          28.8060   -51.7080    34.0470 h1         1 ZDL       0.047450
     13 H7          28.5100   -54.0900    32.3520 h1         1 ZDL       0.047450
     14 H8          29.6410   -52.7660    32.0610 h1         1 ZDL       0.047450
     15 H10         28.5300   -53.5060    29.5970 h1         1 ZDL       0.033033
     16 H11         27.1420   -54.3150    30.3380 h1         1 ZDL       0.033033
     17 H12         26.9110   -52.8650    29.3440 h1         1 ZDL       0.033033
     18 H13         25.8630   -51.4800    31.3110 h2         1 ZDL       0.049200
     19 H14         25.9030   -53.0460    32.1430 h2         1 ZDL       0.049200
@<TRIPOS>BOND
     1     1     2 1   
     2     1     8 1   
     3     1     9 1   
     4     1    10 1   
     5     2     3 1   
     6     2     7 1   
     7     3     4 1   
     8     3    11 1   
     9     3    12 1   
    10     4     5 1   
    11     4    13 1   
    12     4    14 1   
    13     5     6 1   
    14     5     7 1   
    15     6    15 1   
    16     6    16 1   
    17     6    17 1   
    18     7    18 1   
    19     7    19 1   
@<TRIPOS>SUBSTRUCTURE
     1 ZDL         1 TEMP              0 ****  ****    0 ROOT
