@<TRIPOS>MOLECULE
ZDL
   19    19     1     0     0
SMALL
No Charge or Current Charge


@<TRIPOS>ATOM
      1 C01         27.2820   -50.0760    32.8850 c3         1 ZDL       0.155100
      2 N02         26.9280   -51.4920    33.1490 n3         1 ZDL      -0.721600
      3 C03         28.0560   -52.3470    33.6180 c5         1 ZDL       0.134300
      4 C04         28.5740   -53.0310    32.3130 c5         1 ZDL       0.134300
      5 N05         27.6810   -52.4690    31.2690 n3         1 ZDL      -0.721600
      6 C06         27.5860   -53.2460    30.0190 c3         1 ZDL       0.155100
      7 C07         26.4110   -52.2270    31.9750 c5         1 ZDL       0.379000
      8 H1          27.6240   -49.5880    33.8080 h1         1 ZDL       0.033033
      9 H2          28.0850   -49.9900    32.1400 h1         1 ZDL       0.033033
     10 H3          26.4100   -49.5220    32.5140 h1         1 ZDL       0.033033
     11 H5          27.7030   -53.1090    34.3260 h1         1 ZDL       0.047450
     12 H6          28.8430   -51.7660    34.1200 h1         1 ZDL       0.047450
     13 H7          28.4730   -54.1230    32.3910 h1         1 ZDL       0.047450
     14 H8          29.6300   -52.7990    32.1160 h1         1 ZDL       0.047450
     15 H10         28.5760   -53.3570    29.5570 h1         1 ZDL       0.033033
     16 H11         27.1800   -54.2490    30.2110 h1         1 ZDL       0.033033
     17 H12         26.9280   -52.7400    29.2990 h1         1 ZDL       0.033033
     18 H13         25.7140   -51.6200    31.3800 h2         1 ZDL       0.049200
     19 H14         25.9420   -53.1750    32.2760 h2         1 ZDL       0.049200
@<TRIPOS>BOND
     1     1     2 1   
     2     1     8 1   
     3     1     9 1   
     4     1    10 1   
     5     2     3 1   
     6     2     7 1   
     7     3     4 1   
     8     3    11 1   
     9     3    12 1   
    10     4     5 1   
    11     4    13 1   
    12     4    14 1   
    13     5     6 1   
    14     5     7 1   
    15     6    15 1   
    16     6    16 1   
    17     6    17 1   
    18     7    18 1   
    19     7    19 1   
@<TRIPOS>SUBSTRUCTURE
     1 ZDL         1 TEMP              0 ****  ****    0 ROOT
