@<TRIPOS>MOLECULE
ZDM
   72    73     1     0     0
SMALL
bcc


@<TRIPOS>ATOM
      1 C1          -0.0680    -2.0540     0.5390 c6         1 ZDM       0.090100
      2 O1          -5.0220     0.6970     1.1730 os         1 ZDM      -0.406600
      3 C2          -1.4870    -1.7940     0.0570 c6         1 ZDM       0.125100
      4 O2          -6.8190     1.9960    -1.6930 oh         1 ZDM      -0.597800
      5 C3          -2.0260    -0.4850     0.6210 c6         1 ZDM       0.127100
      6 O3          -4.8390    -2.3080    -0.8980 oh         1 ZDM      -0.614800
      7 C4          -1.0360     0.6570     0.3600 c6         1 ZDM       0.152100
      8 C5          -5.4010    -1.1760    -0.2870 c6         1 ZDM       0.102100
      9 O5           0.2420     0.2970     0.8360 os         1 ZDM      -0.419600
     10 C6           0.7820    -0.8340     0.1990 c6         1 ZDM       0.319900
     11 C7          -5.8760    -0.2120    -1.3670 c6         1 ZDM       0.106100
     12 O7          -3.2470    -0.1800    -0.0150 os         1 ZDM      -0.438600
     13 C8          -6.4720     1.0340    -0.7270 c6         1 ZDM       0.124100
     14 C9          -5.4440     1.6560     0.2140 c6         1 ZDM       0.145100
     15 C10         -4.4370    -0.4600     0.6650 c6         1 ZDM       0.312900
     16 C11         -6.0010     2.8370     0.9790 c3         1 ZDM       0.146400
     17 O16          2.0590    -1.0380     0.6630 os         1 ZDM      -0.408600
     18 C18          3.0590    -0.2320     0.0550 c3         1 ZDM       0.142400
     19 C19          4.4220    -0.6990     0.5190 c3         1 ZDM      -0.081400
     20 C22          5.5420     0.0750    -0.1660 c3         1 ZDM      -0.074400
     21 C25          6.9300    -0.3690     0.2790 c3         1 ZDM      -0.073400
     22 C28          8.0510     0.3770    -0.4330 c3         1 ZDM      -0.074400
     23 C31          9.4420    -0.0640     0.0050 c3         1 ZDM      -0.074400
     24 C34         10.5620     0.6730    -0.7170 c3         1 ZDM      -0.075400
     25 O49          0.3890    -3.2130    -0.1090 oh         1 ZDM      -0.602800
     26 O55         -2.3660    -2.8310     0.4440 oh         1 ZDM      -0.614800
     27 C57         -1.4500     1.9310     1.0650 c3         1 ZDM       0.145400
     28 O61         -0.5810     2.9640     0.6670 oh         1 ZDM      -0.593800
     29 C20         11.9550     0.2340    -0.2810 c3         1 ZDM      -0.074400
     30 C21         13.0650     0.9760    -1.0130 c3         1 ZDM      -0.088100
     31 H1          -0.0730    -2.1780     1.6320 h1         1 ZDM       0.067700
     32 H2          -1.4630    -1.7020    -1.0400 h1         1 ZDM       0.061700
     33 HO2         -7.4150     1.5790    -2.3240 ho         1 ZDM       0.427000
     34 H3          -2.1650    -0.5920     1.7070 h1         1 ZDM       0.067700
     35 HO3         -4.0460    -2.5910    -0.4130 ho         1 ZDM       0.439000
     36 H4          -1.0000     0.8400    -0.7260 h1         1 ZDM       0.061700
     37 H6           0.7800    -0.6780    -0.8980 h2         1 ZDM       0.034700
     38 H101        -5.2960     4.2340     2.1180 ho         1 ZDM       0.405000
     39 H7          -5.0110     0.0930    -1.9740 h1         1 ZDM       0.061700
     40 H8          -7.3530     0.7330    -0.1360 h1         1 ZDM       0.050700
     41 H9          -4.5900     2.0030    -0.3850 h1         1 ZDM       0.072700
     42 H10         -4.2420    -1.0920     1.5390 h2         1 ZDM       0.084700
     43 H11         -6.8160     2.4920     1.6310 h1         1 ZDM       0.037700
     44 H16         -6.4390     3.5380     0.2620 h1         1 ZDM       0.037700
     45 H18          2.9860    -0.3160    -1.0370 h1         1 ZDM       0.036200
     46 H18A         2.9140     0.8240     0.3100 h1         1 ZDM       0.036200
     47 H19          4.5030    -0.5830     1.6040 hc         1 ZDM       0.050700
     48 H19A         4.5320    -1.7660     0.3040 hc         1 ZDM       0.050700
     49 H22          5.4550    -0.0450    -1.2510 hc         1 ZDM       0.039700
     50 H20          5.4250     1.1460     0.0310 hc         1 ZDM       0.039700
     51 H25          7.0270    -0.2280     1.3610 hc         1 ZDM       0.038700
     52 H221         7.0400    -1.4440     0.1010 hc         1 ZDM       0.038700
     53 H28          7.9510     0.2340    -1.5150 hc         1 ZDM       0.037700
     54 H28A         7.9410     1.4530    -0.2590 hc         1 ZDM       0.037700
     55 H31          9.5460     0.0860     1.0860 hc         1 ZDM       0.037200
     56 H26          9.5490    -1.1420    -0.1620 hc         1 ZDM       0.037200
     57 H34         10.4570     0.5220    -1.7980 hc         1 ZDM       0.037200
     58 H34A        10.4540     1.7500    -0.5520 hc         1 ZDM       0.037200
     59 HO49         1.2050    -3.4990     0.3140 ho         1 ZDM       0.428000
     60 HO55        -2.0320    -3.6630     0.0890 ho         1 ZDM       0.434000
     61 H57         -2.4900     2.1580     0.8120 h1         1 ZDM       0.044200
     62 H57A        -1.4130     1.7630     2.1500 h1         1 ZDM       0.044200
     63 HO61        -0.8510     3.7700     1.1160 ho         1 ZDM       0.409000
     64 H341        12.0600     0.3870     0.7970 hc         1 ZDM       0.036700
     65 H35         12.0620    -0.8430    -0.4460 hc         1 ZDM       0.036700
     66 H36         13.0030     0.8140    -2.0910 hc         1 ZDM       0.031367
     67 H37         13.0000     2.0520    -0.8400 hc         1 ZDM       0.031367
     68 H38         14.0520     0.6480    -0.6860 hc         1 ZDM       0.031367
     69 H5          -6.2730    -1.4660     0.3190 h1         1 ZDM       0.062700
     70 O4          -6.8740    -0.7870    -2.1800 oh         1 ZDM      -0.606800
     71 O6          -4.9560     3.4310     1.7140 oh         1 ZDM      -0.597800
     72 HO4         -6.4610    -1.4350    -2.7590 ho         1 ZDM       0.426000
@<TRIPOS>BOND
     1     1     3 1   
     2     1    10 1   
     3     1    25 1   
     4     1    31 1   
     5     2    14 1   
     6     2    15 1   
     7     3     5 1   
     8     3    26 1   
     9     3    32 1   
    10     4    13 1   
    11     4    33 1   
    12     5     7 1   
    13     5    12 1   
    14     5    34 1   
    15     6     8 1   
    16     6    35 1   
    17     7     9 1   
    18     7    27 1   
    19     7    36 1   
    20     8    11 1   
    21     8    15 1   
    22     8    69 1   
    23     9    10 1   
    24    10    17 1   
    25    10    37 1   
    26    11    13 1   
    27    11    39 1   
    28    11    70 1   
    29    12    15 1   
    30    13    14 1   
    31    13    40 1   
    32    14    16 1   
    33    14    41 1   
    34    15    42 1   
    35    16    43 1   
    36    16    44 1   
    37    16    71 1   
    38    17    18 1   
    39    18    19 1   
    40    18    45 1   
    41    18    46 1   
    42    19    20 1   
    43    19    47 1   
    44    19    48 1   
    45    20    21 1   
    46    20    49 1   
    47    20    50 1   
    48    21    22 1   
    49    21    51 1   
    50    21    52 1   
    51    22    23 1   
    52    22    53 1   
    53    22    54 1   
    54    23    24 1   
    55    23    55 1   
    56    23    56 1   
    57    24    29 1   
    58    24    57 1   
    59    24    58 1   
    60    25    59 1   
    61    26    60 1   
    62    27    28 1   
    63    27    61 1   
    64    27    62 1   
    65    28    63 1   
    66    29    30 1   
    67    29    64 1   
    68    29    65 1   
    69    30    66 1   
    70    30    67 1   
    71    30    68 1   
    72    38    71 1   
    73    70    72 1   
@<TRIPOS>SUBSTRUCTURE
     1 ZDM         1 TEMP              0 ****  ****    0 ROOT
