@<TRIPOS>MOLECULE
ZDM
   72    73     1     0     0
SMALL
No Charge or Current Charge


@<TRIPOS>ATOM
      1 C1          -0.1890    -2.0540     0.2960 c6         1 ZDM       0.113300
      2 O1          -5.0330     0.7520     1.4070 os         1 ZDM      -0.453000
      3 C2          -1.6350    -1.7220    -0.1580 c6         1 ZDM       0.148300
      4 O2          -7.5080     1.8440    -1.1940 oh         1 ZDM      -0.720000
      5 C3          -2.0190    -0.2830     0.3240 c6         1 ZDM       0.150300
      6 O3          -4.9210    -2.3070    -0.7960 oh         1 ZDM      -0.737000
      7 C4          -0.9620     0.7300    -0.2130 c6         1 ZDM       0.175300
      8 C5          -5.4970    -1.1960    -0.0630 c6         1 ZDM       0.125300
      9 O5           0.3720     0.3290     0.2080 os         1 ZDM      -0.466000
     10 C6           0.7720    -0.9660    -0.2820 c6         1 ZDM       0.366300
     11 C7          -6.2390    -0.2420    -1.0410 c6         1 ZDM       0.129300
     12 O7          -3.3550     0.0920    -0.0930 os         1 ZDM      -0.485000
     13 C8          -6.8380     0.9690    -0.2680 c6         1 ZDM       0.147300
     14 C9          -5.6980     1.6930     0.5170 c6         1 ZDM       0.168300
     15 C10         -4.4300    -0.3810     0.7480 c6         1 ZDM       0.359300
     16 C11         -6.2310     2.8880     1.3750 c3         1 ZDM       0.169600
     17 O16          2.1230    -1.2340     0.1270 os         1 ZDM      -0.455000
     18 C18          3.1340    -0.3780    -0.4290 c3         1 ZDM       0.165600
     19 C19          4.4960    -0.8550     0.1080 c3         1 ZDM      -0.081400
     20 C22          5.6790    -0.0130    -0.4180 c3         1 ZDM      -0.074400
     21 C25          7.0470    -0.4880     0.1200 c3         1 ZDM      -0.073400
     22 C28          8.2290     0.3540    -0.4060 c3         1 ZDM      -0.074400
     23 C31          9.5970    -0.1210     0.1320 c3         1 ZDM      -0.074400
     24 C34         10.7790     0.7220    -0.3940 c3         1 ZDM      -0.075400
     25 O49          0.1690    -3.3980    -0.1080 oh         1 ZDM      -0.725000
     26 O55         -2.5300    -2.7450     0.3160 oh         1 ZDM      -0.737000
     27 C57         -1.2310     2.1850     0.2960 c3         1 ZDM       0.168600
     28 O61         -0.2460     3.1410    -0.1540 oh         1 ZDM      -0.716000
     29 C20         12.1470     0.2470     0.1440 c3         1 ZDM      -0.074400
     30 C21         13.3270     1.0870    -0.3810 c3         1 ZDM      -0.088100
     31 H1          -0.1470    -1.9760     1.3930 h1         1 ZDM       0.067700
     32 H2          -1.6450    -1.7160    -1.2590 h1         1 ZDM       0.061700
     33 HO2         -7.9470     1.2350    -1.8370 ho         1 ZDM       0.526000
     34 H3          -1.9730    -0.2500     1.4230 h1         1 ZDM       0.067700
     35 HO3         -4.0120    -2.4650    -0.3970 ho         1 ZDM       0.538000
     36 H4          -0.9990     0.7430    -1.3120 h1         1 ZDM       0.061700
     37 H6           0.7200    -0.9770    -1.3820 h2         1 ZDM       0.034700
     38 H101        -5.6500     4.2270     2.7000 ho         1 ZDM       0.504000
     39 H7          -5.4990     0.1450    -1.7590 h1         1 ZDM       0.061700
     40 H8          -7.5640     0.5830     0.4650 h1         1 ZDM       0.050700
     41 H9          -4.9630     2.0920    -0.1970 h1         1 ZDM       0.072700
     42 H10         -4.0250    -1.0480     1.5250 h2         1 ZDM       0.084700
     43 H11         -7.0170     2.5060     2.0400 h1         1 ZDM       0.037700
     44 H16         -6.7050     3.6120     0.6980 h1         1 ZDM       0.037700
     45 H18          3.1300    -0.4350    -1.5260 h1         1 ZDM       0.036200
     46 H18A         2.9690     0.6660    -0.1340 h1         1 ZDM       0.036200
     47 H19          4.4820    -0.8140     1.2050 hc         1 ZDM       0.050700
     48 H19A         4.6450    -1.9050    -0.1750 hc         1 ZDM       0.050700
     49 H22          5.6900    -0.0530    -1.5140 hc         1 ZDM       0.039700
     50 H20          5.5270     1.0370    -0.1370 hc         1 ZDM       0.039700
     51 H25          7.0360    -0.4490     1.2170 hc         1 ZDM       0.038700
     52 H221         7.1990    -1.5380    -0.1610 hc         1 ZDM       0.038700
     53 H28          8.2400     0.3140    -1.5030 hc         1 ZDM       0.037700
     54 H28A         8.0770     1.4040    -0.1250 hc         1 ZDM       0.037700
     55 H31          9.5860    -0.0810     1.2290 hc         1 ZDM       0.037200
     56 H26          9.7490    -1.1710    -0.1490 hc         1 ZDM       0.037200
     57 H34         10.7900     0.6820    -1.4910 hc         1 ZDM       0.037200
     58 H34A        10.6270     1.7710    -0.1130 hc         1 ZDM       0.037200
     59 HO49         1.1470    -3.4700     0.0180 ho         1 ZDM       0.527000
     60 HO55        -1.9530    -3.5520     0.3590 ho         1 ZDM       0.533000
     61 H57         -2.2300     2.4890    -0.0460 h1         1 ZDM       0.044200
     62 H57A        -1.2600     2.1610     1.3940 h1         1 ZDM       0.044200
     63 HO61        -0.4640     4.0020     0.2730 ho         1 ZDM       0.508000
     64 H341        12.1400     0.2870     1.2400 hc         1 ZDM       0.036700
     65 H35         12.3040    -0.8020    -0.1370 hc         1 ZDM       0.036700
     66 H36         13.3820     1.0380    -1.4750 hc         1 ZDM       0.031367
     67 H37         13.2170     2.1370    -0.0860 hc         1 ZDM       0.031367
     68 H38         14.2740     0.7130     0.0270 hc         1 ZDM       0.031367
     69 H5          -6.2280    -1.5790     0.6650 h1         1 ZDM       0.062700
     70 O4          -7.2690    -0.9570    -1.7490 oh         1 ZDM      -0.669000
     71 O6          -5.2030     3.5440     2.1480 oh         1 ZDM      -0.720000
     72 HO4         -6.8770    -1.8460    -1.9180 ho         1 ZDM       0.465000
@<TRIPOS>BOND
     1     1     3 1   
     2     1    10 1   
     3     1    25 1   
     4     1    31 1   
     5     2    14 1   
     6     2    15 1   
     7     3     5 1   
     8     3    26 1   
     9     3    32 1   
    10     4    13 1   
    11     4    33 1   
    12     5     7 1   
    13     5    12 1   
    14     5    34 1   
    15     6     8 1   
    16     6    35 1   
    17     7     9 1   
    18     7    27 1   
    19     7    36 1   
    20     8    11 1   
    21     8    15 1   
    22     8    69 1   
    23     9    10 1   
    24    10    17 1   
    25    10    37 1   
    26    11    13 1   
    27    11    39 1   
    28    11    70 1   
    29    12    15 1   
    30    13    14 1   
    31    13    40 1   
    32    14    16 1   
    33    14    41 1   
    34    15    42 1   
    35    16    43 1   
    36    16    44 1   
    37    16    71 1   
    38    17    18 1   
    39    18    19 1   
    40    18    45 1   
    41    18    46 1   
    42    19    20 1   
    43    19    47 1   
    44    19    48 1   
    45    20    21 1   
    46    20    49 1   
    47    20    50 1   
    48    21    22 1   
    49    21    51 1   
    50    21    52 1   
    51    22    23 1   
    52    22    53 1   
    53    22    54 1   
    54    23    24 1   
    55    23    55 1   
    56    23    56 1   
    57    24    29 1   
    58    24    57 1   
    59    24    58 1   
    60    25    59 1   
    61    26    60 1   
    62    27    28 1   
    63    27    61 1   
    64    27    62 1   
    65    28    63 1   
    66    29    30 1   
    67    29    64 1   
    68    29    65 1   
    69    30    66 1   
    70    30    67 1   
    71    30    68 1   
    72    38    71 1   
    73    70    72 1   
@<TRIPOS>SUBSTRUCTURE
     1 ZDM         1 TEMP              0 ****  ****    0 ROOT
