@<TRIPOS>MOLECULE
ZDO
   34    34     1     0     0
SMALL
bcc


@<TRIPOS>ATOM
      1 C1         -83.7760   -21.8160    25.4890 c6         1 ZDO       0.324900
      2 C1M        -83.3000   -21.8250    27.7860 c3         1 ZDO       0.135700
      3 C2         -84.9540   -21.8010    24.5080 c6         1 ZDO       0.206500
      4 C3         -85.5270   -23.2100    24.3560 c6         1 ZDO       0.139100
      5 C4         -84.4110   -24.1700    23.9660 c6         1 ZDO       0.092100
      6 C5         -83.3050   -24.0930    25.0190 c6         1 ZDO       0.104100
      7 C6         -82.1340   -25.0180    24.7690 c3         1 ZDO       0.199400
      8 O1         -84.2480   -22.0600    26.7690 os         1 ZDO      -0.401600
      9 N2         -86.0160   -20.9000    24.9260 n7         1 ZDO      -0.805100
     10 S2         -85.7200   -19.2240    24.8530 s6         1 ZDO       1.350700
     11 OSA        -87.0800   -18.6680    24.8640 o          1 ZDO      -0.717867
     12 OSB        -84.9720   -18.9470    23.6130 o          1 ZDO      -0.717867
     13 OSC        -84.9380   -18.9130    26.0580 o          1 ZDO      -0.717867
     14 O3         -86.5340   -23.1560    23.3730 oh         1 ZDO      -0.605800
     15 O4         -84.9480   -25.4630    23.8660 oh         1 ZDO      -0.655800
     16 O5         -82.8200   -22.7630    25.0870 os         1 ZDO      -0.420600
     17 O6         -81.5490   -24.7990    23.4900 os         1 ZDO      -0.561500
     18 S6         -81.5490   -26.0330    22.4150 s6         1 ZDO       1.504300
     19 OS1        -80.8670   -25.4160    21.2850 o          1 ZDO      -0.716533
     20 OS2        -82.9710   -26.3430    22.1590 o          1 ZDO      -0.716533
     21 OS3        -80.8370   -27.1340    23.0630 o          1 ZDO      -0.716533
     22 H1         -83.2430   -20.8580    25.4500 h2         1 ZDO       0.091700
     23 H1M1       -83.8150   -21.9180    28.7410 h1         1 ZDO       0.017700
     24 H1M2       -82.4740   -22.5420    27.7700 h1         1 ZDO       0.017700
     25 H1M3       -82.8790   -20.8160    27.7160 h1         1 ZDO       0.017700
     26 H2         -84.5340   -21.5110    23.5340 h1         1 ZDO       0.068700
     27 HN21       -86.8510   -21.0910    24.3810 hn         1 ZDO       0.392800
     28 H3         -85.9480   -23.5320    25.3210 h1         1 ZDO       0.046700
     29 HO3        -86.9400   -24.0280    23.3170 ho         1 ZDO       0.404000
     30 H4         -84.0010   -23.8360    23.0010 h1         1 ZDO       0.072700
     31 HO4        -84.3610   -25.9570    23.2660 ho         1 ZDO       0.468000
     32 H5         -83.7240   -24.4030    25.9880 h1         1 ZDO       0.033700
     33 H61        -81.3670   -24.8380    25.5260 h1         1 ZDO       0.032700
     34 H62        -82.4660   -26.0500    24.9020 h1         1 ZDO       0.032700
@<TRIPOS>BOND
     1     1     3 1   
     2     1     8 1   
     3     1    16 1   
     4     1    22 1   
     5     2     8 1   
     6     2    23 1   
     7     2    24 1   
     8     2    25 1   
     9     3     4 1   
    10     3     9 1   
    11     3    26 1   
    12     4     5 1   
    13     4    14 1   
    14     4    28 1   
    15     5     6 1   
    16     5    15 1   
    17     5    30 1   
    18     6     7 1   
    19     6    16 1   
    20     6    32 1   
    21     7    17 1   
    22     7    33 1   
    23     7    34 1   
    24     9    10 1   
    25     9    27 1   
    26    10    11 1   
    27    10    12 1   
    28    10    13 1   
    29    14    29 1   
    30    15    31 1   
    31    17    18 1   
    32    18    19 1   
    33    18    20 1   
    34    18    21 1   
@<TRIPOS>SUBSTRUCTURE
     1 ZDO         1 TEMP              0 ****  ****    0 ROOT
