@<TRIPOS>MOLECULE
ZDO
   34    34     1     0     0
SMALL
No Charge or Current Charge


@<TRIPOS>ATOM
      1 C1         -83.7410   -21.7470    25.6070 c6         1 ZDO       0.371300
      2 C1M        -83.1170   -21.9600    27.9630 c3         1 ZDO       0.158900
      3 C2         -84.9700   -21.6980    24.6200 c6         1 ZDO       0.206500
      4 C3         -85.5530   -23.1360    24.4520 c6         1 ZDO       0.162300
      5 C4         -84.4400   -24.1200    23.9870 c6         1 ZDO       0.115300
      6 C5         -83.2630   -24.0750    25.0140 c6         1 ZDO       0.127300
      7 C6         -82.0580   -25.0060    24.6510 c3         1 ZDO       0.222600
      8 O1         -84.1340   -22.0840    26.9580 os         1 ZDO      -0.448000
      9 N2         -86.0490   -20.7360    25.0020 n7         1 ZDO      -0.860300
     10 S2         -85.8750   -19.1370    24.6820 s6         1 ZDO       1.350700
     11 OSA        -86.7910   -19.0270    23.5500 o          1 ZDO      -0.717867
     12 OSB        -84.4540   -18.9910    24.3590 o          1 ZDO      -0.717867
     13 OSC        -86.3150   -18.5200    25.9350 o          1 ZDO      -0.717867
     14 O3         -86.6410   -23.1620    23.5060 oh         1 ZDO      -0.668000
     15 O4         -84.9800   -25.4520    23.8250 oh         1 ZDO      -0.778000
     16 O5         -82.7660   -22.7160    25.1450 os         1 ZDO      -0.467000
     17 O6         -81.6490   -24.8170    23.2800 os         1 ZDO      -0.584700
     18 S6         -81.7050   -26.1420    22.3170 s6         1 ZDO       1.504300
     19 OS1        -81.3060   -25.6380    20.9960 o          1 ZDO      -0.716533
     20 OS2        -83.1090   -26.5680    22.4100 o          1 ZDO      -0.716533
     21 OS3        -80.7480   -27.0730    22.9300 o          1 ZDO      -0.716533
     22 H1         -83.2680   -20.7530    25.6170 h2         1 ZDO       0.091700
     23 H1M1       -83.5260   -22.2090    28.9500 h1         1 ZDO       0.017700
     24 H1M2       -82.2790   -22.6390    27.7600 h1         1 ZDO       0.017700
     25 H1M3       -82.7320   -20.9330    28.0010 h1         1 ZDO       0.017700
     26 H2         -84.5800   -21.4100    23.6320 h1         1 ZDO       0.068700
     27 HN21       -86.7970   -20.8670    24.3280 hn         1 ZDO       0.448000
     28 H3         -85.9180   -23.4740    25.4340 h1         1 ZDO       0.046700
     29 HO3        -86.7140   -24.1120    23.2540 ho         1 ZDO       0.443000
     30 H4         -84.0560   -23.7560    23.0210 h1         1 ZDO       0.072700
     31 HO4        -84.3080   -25.9540    23.2590 ho         1 ZDO       0.567000
     32 H5         -83.6340   -24.4010    25.9960 h1         1 ZDO       0.033700
     33 H61        -81.2250   -24.7760    25.3280 h1         1 ZDO       0.032700
     34 H62        -82.3570   -26.0430    24.8570 h1         1 ZDO       0.032700
@<TRIPOS>BOND
     1     1     3 1   
     2     1     8 1   
     3     1    16 1   
     4     1    22 1   
     5     2     8 1   
     6     2    23 1   
     7     2    24 1   
     8     2    25 1   
     9     3     4 1   
    10     3     9 1   
    11     3    26 1   
    12     4     5 1   
    13     4    14 1   
    14     4    28 1   
    15     5     6 1   
    16     5    15 1   
    17     5    30 1   
    18     6     7 1   
    19     6    16 1   
    20     6    32 1   
    21     7    17 1   
    22     7    33 1   
    23     7    34 1   
    24     9    10 1   
    25     9    27 1   
    26    10    11 1   
    27    10    12 1   
    28    10    13 1   
    29    14    29 1   
    30    15    31 1   
    31    17    18 1   
    32    18    19 1   
    33    18    20 1   
    34    18    21 1   
@<TRIPOS>SUBSTRUCTURE
     1 ZDO         1 TEMP              0 ****  ****    0 ROOT
