@<TRIPOS>MOLECULE
ZDR
   28    27     1     0     0
SMALL
No Charge or Current Charge


@<TRIPOS>ATOM
      1 CAN          2.5250     0.1430    -1.8340 c3         1 ZDR      -0.051100
      2 CAT          2.4460     0.2340    -0.2800 c3         1 ZDR       0.032200
      3 NAC          2.5630     1.6950     0.0820 n8         1 ZDR      -0.990200
      4 CAQ          3.5880    -0.6830     0.3740 c          1 ZDR       0.695000
      5 OAF          4.1020    -0.3040     1.4220 o          1 ZDR      -0.744500
      6 OAH          3.9990    -1.6640    -0.2320 o          1 ZDR      -0.744500
      7 CAM          1.0760    -0.3130     0.2440 c3         1 ZDR      -0.049400
      8 CAJ         -0.2110     0.3620    -0.3070 c3         1 ZDR      -0.077400
      9 CAK         -1.5070    -0.2340     0.3010 c3         1 ZDR      -0.101400
     10 CAS         -2.8240     0.3550    -0.2750 c3         1 ZDR       0.023500
     11 NAB         -2.9190     1.8240     0.0500 n8         1 ZDR      -1.000200
     12 CAP         -4.0710    -0.5440     0.1310 c          1 ZDR       0.724000
     13 OAE         -4.6810    -1.1290    -0.7560 o          1 ZDR      -0.748000
     14 OAG         -4.4250    -0.5640     1.3050 o          1 ZDR      -0.748000
     15 HAN1         3.5350     0.3910    -2.1860 hc         1 ZDR       0.014700
     16 HAN2         2.2830    -0.8680    -2.1840 hc         1 ZDR       0.014700
     17 HAN3         1.8280     0.8390    -2.3170 hc         1 ZDR       0.014700
     18 HAC1         2.7580     1.7460     1.0880 hn         1 ZDR       0.375000
     19 HAC2         3.4230     2.0660    -0.3340 hn         1 ZDR       0.375000
     20 HAM1         1.0230    -1.3850     0.0180 hc         1 ZDR       0.037200
     21 HAM2         1.0670    -0.2370     1.3390 hc         1 ZDR       0.037200
     22 HAJ1        -0.1750     1.4380    -0.1020 hc         1 ZDR       0.024700
     23 HAJ2        -0.2520     0.2420    -1.3960 hc         1 ZDR       0.024700
     24 HAK1        -1.5070    -1.3150     0.1160 hc         1 ZDR       0.037700
     25 HAK2        -1.4940    -0.1060     1.3910 hc         1 ZDR       0.037700
     26 HAS         -2.7480     0.2840    -1.3690 h1         1 ZDR       0.038700
     27 HAB1        -3.0770     1.9240     1.0600 hn         1 ZDR       0.376000
     28 HAB2        -1.9990     2.2520    -0.0980 hn         1 ZDR       0.376000
@<TRIPOS>BOND
     1     1     2 1   
     2     1    15 1   
     3     1    16 1   
     4     1    17 1   
     5     2     3 1   
     6     2     4 1   
     7     2     7 1   
     8     3    18 1   
     9     3    19 1   
    10     4     5 1   
    11     4     6 1   
    12     7     8 1   
    13     7    20 1   
    14     7    21 1   
    15     8     9 1   
    16     8    22 1   
    17     8    23 1   
    18     9    10 1   
    19     9    24 1   
    20     9    25 1   
    21    10    11 1   
    22    10    12 1   
    23    10    26 1   
    24    11    27 1   
    25    11    28 1   
    26    12    13 1   
    27    12    14 1   
@<TRIPOS>SUBSTRUCTURE
     1 ZDR         1 TEMP              0 ****  ****    0 ROOT
