@<TRIPOS>MOLECULE
ZDR
   28    27     1     0     0
SMALL
abcg2


@<TRIPOS>ATOM
      1 CAN          2.5230     0.1820    -1.8100 c3         1 ZDR      -0.051100
      2 CAT          2.4080     0.2250    -0.2830 c3         1 ZDR       0.032200
      3 NAC          2.4790     1.6240     0.1320 n8         1 ZDR      -0.990200
      4 CAQ          3.5590    -0.6540     0.2940 c          1 ZDR       0.695000
      5 OAF          4.4720    -0.0760     0.9180 o          1 ZDR      -0.744500
      6 OAH          3.4930    -1.8810     0.0670 o          1 ZDR      -0.744500
      7 CAM          1.0650    -0.3530     0.1850 c3         1 ZDR      -0.049400
      8 CAJ         -0.1820     0.3610    -0.3250 c3         1 ZDR      -0.077400
      9 CAK         -1.4610    -0.2580     0.2270 c3         1 ZDR      -0.101400
     10 CAS         -2.7510     0.3960    -0.2940 c3         1 ZDR       0.023500
     11 NAB         -2.9200     1.7890     0.0890 n8         1 ZDR      -1.000200
     12 CAP         -3.9570    -0.4450     0.1770 c          1 ZDR       0.724000
     13 OAE         -4.1680    -1.5050    -0.4480 o          1 ZDR      -0.748000
     14 OAG         -4.5940    -0.0280     1.1650 o          1 ZDR      -0.748000
     15 HAN1         3.5060     0.5330    -2.1360 hc         1 ZDR       0.014700
     16 HAN2         2.3900    -0.8310    -2.1890 hc         1 ZDR       0.014700
     17 HAN3         1.7780     0.8250    -2.2800 hc         1 ZDR       0.014700
     18 HAC1         2.3680     1.6660     1.1390 hn         1 ZDR       0.375000
     19 HAC2         3.4270     1.9480    -0.0210 hn         1 ZDR       0.375000
     20 HAM1         1.0170    -1.4060    -0.0980 hc         1 ZDR       0.037200
     21 HAM2         1.0460    -0.3390     1.2840 hc         1 ZDR       0.037200
     22 HAJ1        -0.1210     1.4210    -0.0620 hc         1 ZDR       0.024700
     23 HAJ2        -0.2210     0.3210    -1.4180 hc         1 ZDR       0.024700
     24 HAK1        -1.4750    -1.3220    -0.0320 hc         1 ZDR       0.037700
     25 HAK2        -1.4540    -0.2080     1.3230 hc         1 ZDR       0.037700
     26 HAS         -2.7180     0.3480    -1.3900 h1         1 ZDR       0.038700
     27 HAB1        -3.1300     1.8220     1.0790 hn         1 ZDR       0.376000
     28 HAB2        -2.0530     2.2960    -0.0430 hn         1 ZDR       0.376000
@<TRIPOS>BOND
     1     1     2 1   
     2     1    15 1   
     3     1    16 1   
     4     1    17 1   
     5     2     3 1   
     6     2     4 1   
     7     2     7 1   
     8     3    18 1   
     9     3    19 1   
    10     4     5 1   
    11     4     6 1   
    12     7     8 1   
    13     7    20 1   
    14     7    21 1   
    15     8     9 1   
    16     8    22 1   
    17     8    23 1   
    18     9    10 1   
    19     9    24 1   
    20     9    25 1   
    21    10    11 1   
    22    10    12 1   
    23    10    26 1   
    24    11    27 1   
    25    11    28 1   
    26    12    13 1   
    27    12    14 1   
@<TRIPOS>SUBSTRUCTURE
     1 ZDR         1 TEMP              0 ****  ****    0 ROOT
