@<TRIPOS>MOLECULE
ZDV
   17    17     1     0     0
SMALL
bcc


@<TRIPOS>ATOM
      1 C1          -0.6330     1.2360    -0.2130 ca         1 ZDV      -0.122000
      2 C2          -0.8080    -0.0820     0.2000 ca         1 ZDV      -0.059300
      3 C3          -2.1820    -0.6700     0.4170 c3         1 ZDV       0.197100
      4 N9          -3.1940    -0.0330    -0.4020 n8         1 ZDV      -0.892800
      5 C18          0.3160    -0.8650     0.4520 ca         1 ZDV      -0.175000
      6 C19          1.5730    -0.3160     0.2980 ca         1 ZDV       0.132900
      7 F7           2.6480    -1.0860     0.5420 f          1 ZDV      -0.147900
      8 C20          1.7680     0.9890    -0.1120 ca         1 ZDV      -0.170000
      9 C21          0.6430     1.7610    -0.3670 ca         1 ZDV      -0.108000
     10 H1          -1.5010     1.8470    -0.4200 ha         1 ZDV       0.155000
     11 H3          -2.1180    -1.7580     0.2820 h1         1 ZDV       0.037200
     12 H3A         -2.4550    -0.5180     1.4650 h1         1 ZDV       0.037200
     13 HN9         -3.1250    -0.3640    -1.3560 hn         1 ZDV       0.344800
     14 H18          0.2120    -1.9010     0.7550 ha         1 ZDV       0.144000
     15 H20          2.7660     1.3870    -0.2370 ha         1 ZDV       0.148000
     16 H21          0.7680     2.7870    -0.6890 ha         1 ZDV       0.134000
     17 H2          -4.1110    -0.3030    -0.0740 hn         1 ZDV       0.344800
@<TRIPOS>BOND
     1     1     2 ar  
     2     1     9 ar  
     3     1    10 1   
     4     2     3 1   
     5     2     5 ar  
     6     3     4 1   
     7     3    11 1   
     8     3    12 1   
     9     4    13 1   
    10     4    17 1   
    11     5     6 ar  
    12     5    14 1   
    13     6     7 1   
    14     6     8 ar  
    15     8     9 ar  
    16     8    15 1   
    17     9    16 1   
@<TRIPOS>SUBSTRUCTURE
     1 ZDV         1 TEMP              0 ****  ****    0 ROOT
