@<TRIPOS>MOLECULE
ZDV
   17    17     1     0     0
SMALL
No Charge or Current Charge


@<TRIPOS>ATOM
      1 C1          -0.5850     1.4550     0.1540 ca         1 ZDV      -0.104000
      2 C2          -0.8670     0.0810     0.2940 ca         1 ZDV      -0.059300
      3 C3          -2.2930    -0.3890     0.5580 c3         1 ZDV       0.197100
      4 N9          -3.0510    -0.5590    -0.6960 n8         1 ZDV      -1.003200
      5 C18          0.1840    -0.8530     0.1900 ca         1 ZDV      -0.157000
      6 C19          1.4960    -0.4130    -0.0490 ca         1 ZDV       0.168000
      7 F7           2.4980    -1.3140    -0.1460 f          1 ZDV      -0.183000
      8 C20          1.7740     0.9550    -0.1870 ca         1 ZDV      -0.152000
      9 C21          0.7310     1.8930    -0.0860 ca         1 ZDV      -0.090000
     10 H1          -1.3890     2.1850     0.2290 ha         1 ZDV       0.137000
     11 H3          -2.2740    -1.3480     1.0950 h1         1 ZDV       0.037200
     12 H3A         -2.8140     0.3430     1.1910 h1         1 ZDV       0.037200
     13 HN9         -2.5940    -1.2870    -1.2580 hn         1 ZDV       0.400000
     14 H18         -0.0130    -1.9170     0.2950 ha         1 ZDV       0.126000
     15 H20          2.7930     1.2870    -0.3720 ha         1 ZDV       0.130000
     16 H21          0.9400     2.9550    -0.1930 ha         1 ZDV       0.116000
     17 H2          -3.9700    -0.9630    -0.4770 hn         1 ZDV       0.400000
@<TRIPOS>BOND
     1     1     2 ar  
     2     1     9 ar  
     3     1    10 1   
     4     2     3 1   
     5     2     5 ar  
     6     3     4 1   
     7     3    11 1   
     8     3    12 1   
     9     4    13 1   
    10     4    17 1   
    11     5     6 ar  
    12     5    14 1   
    13     6     7 1   
    14     6     8 ar  
    15     8     9 ar  
    16     8    15 1   
    17     9    16 1   
@<TRIPOS>SUBSTRUCTURE
     1 ZDV         1 TEMP              0 ****  ****    0 ROOT
