@<TRIPOS>MOLECULE
ZE0
   97    96     1     0     0
SMALL
abcg2


@<TRIPOS>ATOM
      1 O1           7.0840    30.5550    46.0660 oh         1 ZE0      -0.662000
      2 C1           7.3100    30.2270    44.7000 c3         1 ZE0       0.185000
      3 C2           8.3890    31.1860    44.2140 c3         1 ZE0      -0.102100
      4 C3           6.0340    30.4400    43.8860 c3         1 ZE0      -0.102100
      5 C4           7.8240    28.7850    44.5620 c3         1 ZE0      -0.103400
      6 C5           6.8910    27.6980    45.0810 c3         1 ZE0      -0.070400
      7 C6           7.4880    26.2870    44.9870 c3         1 ZE0      -0.044200
      8 C7           7.8360    25.8850    43.5750 c2         1 ZE0      -0.093400
      9 C8           9.2920    25.9160    43.2290 c3         1 ZE0      -0.056900
     10 C9           6.8510    25.5540    42.7190 ce         1 ZE0      -0.196000
     11 C10          6.9940    25.2170    41.3230 ce         1 ZE0      -0.165000
     12 C11          5.9450    24.9470    40.5190 cf         1 ZE0      -0.181000
     13 C12          6.0240    24.6550    39.1030 cf         1 ZE0      -0.060200
     14 C13          7.3810    24.6200    38.4660 c3         1 ZE0      -0.056900
     15 C14          4.8680    24.4500    38.4210 ce         1 ZE0      -0.179000
     16 C15          4.7270    24.2010    37.0160 ce         1 ZE0      -0.170000
     17 C16          3.5290    24.0240    36.4130 cf         1 ZE0      -0.175000
     18 C17          3.3300    23.8110    34.9990 cf         1 ZE0      -0.062200
     19 C18          4.5390    23.8030    34.1110 c3         1 ZE0      -0.056900
     20 C19          2.0600    23.6370    34.5430 ce         1 ZE0      -0.176000
     21 C20          1.6550    23.4410    33.1850 ce         1 ZE0      -0.172000
     22 C21          0.3660    23.2640    32.8010 cf         1 ZE0      -0.170000
     23 C22         -0.0020    23.1040    31.4280 cf         1 ZE0      -0.178000
     24 C23         -1.2470    22.9210    30.9100 ce         1 ZE0      -0.061200
     25 C24         -2.4900    22.8230    31.7410 c3         1 ZE0      -0.054900
     26 C25         -1.3670    22.8260    29.4770 ce         1 ZE0      -0.176000
     27 C26         -2.5130    22.6640    28.7750 cf         1 ZE0      -0.169000
     28 C27         -2.5200    22.6170    27.3430 cf         1 ZE0      -0.180000
     29 C28         -3.5910    22.4780    26.5160 ce         1 ZE0      -0.060200
     30 C29         -5.0020    22.3260    26.9980 c3         1 ZE0      -0.054900
     31 C30         -3.3460    22.4930    25.0930 ce         1 ZE0      -0.179000
     32 C31         -4.2780    22.3850    24.1190 cf         1 ZE0      -0.166000
     33 C32         -3.9270    22.4400    22.7270 cf         1 ZE0      -0.185000
     34 C33         -4.7600    22.3600    21.6620 ce         1 ZE0      -0.056200
     35 C34         -6.2520    22.2340    21.7790 c3         1 ZE0      -0.055900
     36 C35         -4.2630    22.4130    20.2920 ce         1 ZE0      -0.184000
     37 C36         -2.9980    22.2080    19.8770 cf         1 ZE0      -0.162000
     38 C37         -2.5980    22.3080    18.4930 cf         1 ZE0      -0.196000
     39 C38         -1.3590    22.1380    17.9960 c2         1 ZE0      -0.092400
     40 C39         -1.0990    22.2860    16.5290 c3         1 ZE0      -0.058900
     41 C40         -0.1470    21.8080    18.8110 c3         1 ZE0      -0.058900
     42 H1O          6.3170    30.0640    46.3770 ho         1 ZE0       0.439000
     43 H21          8.6320    30.9890    43.1690 hc         1 ZE0       0.041200
     44 H22          8.0570    32.2230    44.2890 hc         1 ZE0       0.041200
     45 H23          9.3060    31.0780    44.7960 hc         1 ZE0       0.041200
     46 H31          6.1940    30.1920    42.8360 hc         1 ZE0       0.041200
     47 H32          5.2100    29.8190    44.2460 hc         1 ZE0       0.041200
     48 H33          5.7110    31.4810    43.9400 hc         1 ZE0       0.041200
     49 H41          8.0340    28.6050    43.5030 hc         1 ZE0       0.049700
     50 H42          8.7850    28.7100    45.0820 hc         1 ZE0       0.049700
     51 H51          6.6400    27.8820    46.1310 hc         1 ZE0       0.038200
     52 H52          5.9480    27.7100    44.5280 hc         1 ZE0       0.038200
     53 H61          8.3790    26.2320    45.6190 hc         1 ZE0       0.047200
     54 H62          6.7660    25.5820    45.4060 hc         1 ZE0       0.047200
     55 H81          9.5060    25.6860    42.1880 hc         1 ZE0       0.042367
     56 H82          9.7160    26.8980    43.4500 hc         1 ZE0       0.042367
     57 H83          9.8390    25.2020    43.8500 hc         1 ZE0       0.042367
     58 H91          5.8320    25.5560    43.1010 ha         1 ZE0       0.168000
     59 H101         7.9950    25.2030    40.9080 ha         1 ZE0       0.171000
     60 H111         4.9460    24.9670    40.9480 ha         1 ZE0       0.170000
     61 H131         7.3510    24.3510    37.4140 hc         1 ZE0       0.041700
     62 H132         7.8750    25.5920    38.5410 hc         1 ZE0       0.041700
     63 H133         8.0290    23.8990    38.9680 hc         1 ZE0       0.041700
     64 H141         3.9410    24.4950    38.9880 ha         1 ZE0       0.169000
     65 H151         5.6260    24.1690    36.4100 ha         1 ZE0       0.173000
     66 H161         2.6320    24.0520    37.0280 ha         1 ZE0       0.170000
     67 H181         4.2960    23.6680    33.0610 hc         1 ZE0       0.042367
     68 H182         5.0960    24.7380    34.2000 hc         1 ZE0       0.042367
     69 H183         5.2240    23.0000    34.3930 hc         1 ZE0       0.042367
     70 H191         1.2600    23.6540    35.2790 ha         1 ZE0       0.170000
     71 H201         2.4140    23.4400    32.4100 ha         1 ZE0       0.171000
     72 H211        -0.4060    23.2570    33.5640 ha         1 ZE0       0.173000
     73 H221         0.8220    23.1470    30.7200 ha         1 ZE0       0.168000
     74 H241        -3.0130    21.8840    31.5490 hc         1 ZE0       0.042367
     75 H242        -2.2930    22.8730    32.8090 hc         1 ZE0       0.042367
     76 H243        -3.1880    23.6270    31.4980 hc         1 ZE0       0.042367
     77 H251        -0.4390    22.9090    28.9160 ha         1 ZE0       0.169000
     78 H261        -3.4550    22.5770    29.3060 ha         1 ZE0       0.174000
     79 H271        -1.5450    22.7190    26.8720 ha         1 ZE0       0.168000
     80 H291        -5.4340    21.3840    26.6520 hc         1 ZE0       0.042367
     81 H292        -5.0850    22.3460    28.0810 hc         1 ZE0       0.042367
     82 H293        -5.6350    23.1250    26.6040 hc         1 ZE0       0.042367
     83 H301        -2.3090    22.6130    24.7900 ha         1 ZE0       0.169000
     84 H311        -5.3200    22.2590    24.3900 ha         1 ZE0       0.174000
     85 H321        -2.8660    22.5760    22.5330 ha         1 ZE0       0.169000
     86 H341        -6.7450    23.0410    21.2310 hc         1 ZE0       0.042033
     87 H342        -6.5960    21.3000    21.3300 hc         1 ZE0       0.042033
     88 H343        -6.6140    22.2630    22.8030 hc         1 ZE0       0.042033
     89 H351        -5.0130    22.6250    19.5320 ha         1 ZE0       0.169000
     90 H361        -2.2380    21.9500    20.6070 ha         1 ZE0       0.171000
     91 H371        -3.3920    22.5540    17.7920 ha         1 ZE0       0.169000
     92 H391        -0.6730    21.3670    16.1150 hc         1 ZE0       0.041033
     93 H392        -2.0030    22.5230    15.9690 hc         1 ZE0       0.041033
     94 H393        -0.3650    23.0750    16.3420 hc         1 ZE0       0.041033
     95 H401         0.3110    20.8830    18.4530 hc         1 ZE0       0.041033
     96 H402         0.6090    22.5880    18.6960 hc         1 ZE0       0.041033
     97 H403        -0.3440    21.6910    19.8740 hc         1 ZE0       0.041033
@<TRIPOS>BOND
     1     1     2 1   
     2     1    42 1   
     3     2     3 1   
     4     2     4 1   
     5     2     5 1   
     6     3    43 1   
     7     3    44 1   
     8     3    45 1   
     9     4    46 1   
    10     4    47 1   
    11     4    48 1   
    12     5     6 1   
    13     5    49 1   
    14     5    50 1   
    15     6     7 1   
    16     6    51 1   
    17     6    52 1   
    18     7     8 1   
    19     7    53 1   
    20     7    54 1   
    21     8     9 1   
    22     8    10 2   
    23     9    55 1   
    24     9    56 1   
    25     9    57 1   
    26    10    11 1   
    27    10    58 1   
    28    11    12 2   
    29    11    59 1   
    30    12    13 1   
    31    12    60 1   
    32    13    14 1   
    33    13    15 2   
    34    14    61 1   
    35    14    62 1   
    36    14    63 1   
    37    15    16 1   
    38    15    64 1   
    39    16    17 2   
    40    16    65 1   
    41    17    18 1   
    42    17    66 1   
    43    18    19 1   
    44    18    20 2   
    45    19    67 1   
    46    19    68 1   
    47    19    69 1   
    48    20    21 1   
    49    20    70 1   
    50    21    22 2   
    51    21    71 1   
    52    22    23 1   
    53    22    72 1   
    54    23    24 2   
    55    23    73 1   
    56    24    25 1   
    57    24    26 1   
    58    25    74 1   
    59    25    75 1   
    60    25    76 1   
    61    26    27 2   
    62    26    77 1   
    63    27    28 1   
    64    27    78 1   
    65    28    29 2   
    66    28    79 1   
    67    29    30 1   
    68    29    31 1   
    69    30    80 1   
    70    30    81 1   
    71    30    82 1   
    72    31    32 2   
    73    31    83 1   
    74    32    33 1   
    75    32    84 1   
    76    33    34 2   
    77    33    85 1   
    78    34    35 1   
    79    34    36 1   
    80    35    86 1   
    81    35    87 1   
    82    35    88 1   
    83    36    37 2   
    84    36    89 1   
    85    37    38 1   
    86    37    90 1   
    87    38    39 2   
    88    38    91 1   
    89    39    40 1   
    90    39    41 1   
    91    40    92 1   
    92    40    93 1   
    93    40    94 1   
    94    41    95 1   
    95    41    96 1   
    96    41    97 1   
@<TRIPOS>SUBSTRUCTURE
     1 ZE0         1 TEMP              0 ****  ****    0 ROOT
