@<TRIPOS>MOLECULE
ZE0
   97    96     1     0     0
SMALL
No Charge or Current Charge


@<TRIPOS>ATOM
      1 O1           6.5670    30.2040    46.9590 oh         1 ZE0      -0.662000
      2 C1           6.7480    30.1630    45.5430 c3         1 ZE0       0.185000
      3 C2           7.5570    31.4200    45.1470 c3         1 ZE0      -0.102100
      4 C3           5.3510    30.2020    44.8780 c3         1 ZE0      -0.102100
      5 C4           7.5460    28.8770    45.1740 c3         1 ZE0      -0.103400
      6 C5           6.8810    27.5220    45.5430 c3         1 ZE0      -0.070400
      7 C6           7.7570    26.2880    45.2190 c3         1 ZE0      -0.044200
      8 C7           8.0400    26.1190    43.7320 c2         1 ZE0      -0.093400
      9 C8           9.4510    26.5380    43.3360 c3         1 ZE0      -0.056900
     10 C9           7.1110    25.6180    42.8820 ce         1 ZE0      -0.196000
     11 C10          7.2970    25.3830    41.4420 ce         1 ZE0      -0.165000
     12 C11          6.3110    24.9290    40.6160 cf         1 ZE0      -0.181000
     13 C12          6.4070    24.6720    39.1750 cf         1 ZE0      -0.060200
     14 C13          7.8040    24.5760    38.5650 c3         1 ZE0      -0.056900
     15 C14          5.2700    24.4680    38.4440 ce         1 ZE0      -0.179000
     16 C15          5.1740    24.2000    37.0000 ce         1 ZE0      -0.170000
     17 C16          4.0000    23.9470    36.3520 cf         1 ZE0      -0.175000
     18 C17          3.8120    23.6870    34.9210 cf         1 ZE0      -0.062200
     19 C18          5.0490    23.3330    34.0990 c3         1 ZE0      -0.056900
     20 C19          2.5550    23.7070    34.3860 ce         1 ZE0      -0.176000
     21 C20          2.1780    23.4710    32.9820 ce         1 ZE0      -0.172000
     22 C21          0.8960    23.4480    32.5310 cf         1 ZE0      -0.170000
     23 C22          0.5210    23.2300    31.1360 cf         1 ZE0      -0.178000
     24 C23         -0.7410    23.1360    30.6200 ce         1 ZE0      -0.061200
     25 C24         -1.9960    23.1830    31.4890 c3         1 ZE0      -0.054900
     26 C25         -0.9290    22.9110    29.1720 ce         1 ZE0      -0.176000
     27 C26         -2.0880    23.0250    28.4620 cf         1 ZE0      -0.169000
     28 C27         -2.1850    22.8000    27.0210 cf         1 ZE0      -0.180000
     29 C28         -3.3130    22.8360    26.2500 ce         1 ZE0      -0.060200
     30 C29         -4.7060    23.0630    26.8320 c3         1 ZE0      -0.054900
     31 C30         -3.2180    22.5820    24.7980 ce         1 ZE0      -0.179000
     32 C31         -4.1790    22.8060    23.8560 cf         1 ZE0      -0.166000
     33 C32         -4.0030    22.5340    22.4310 cf         1 ZE0      -0.185000
     34 C33         -4.9290    22.7440    21.4470 ce         1 ZE0      -0.056200
     35 C34         -6.3080    23.3120    21.7650 c3         1 ZE0      -0.055900
     36 C35         -4.6880    22.4460    20.0170 ce         1 ZE0      -0.184000
     37 C36         -3.5510    21.9500    19.4500 cf         1 ZE0      -0.162000
     38 C37         -3.4040    21.6910    18.0200 cf         1 ZE0      -0.196000
     39 C38         -2.3100    21.1650    17.4140 c2         1 ZE0      -0.092400
     40 C39         -2.2310    20.9640    15.9110 c3         1 ZE0      -0.058900
     41 C40         -1.0360    20.7440    18.1310 c3         1 ZE0      -0.058900
     42 H1O          6.0700    29.3950    47.2020 ho         1 ZE0       0.439000
     43 H21          7.7210    31.4520    44.0630 hc         1 ZE0       0.041200
     44 H22          7.0280    32.3360    45.4370 hc         1 ZE0       0.041200
     45 H23          8.5380    31.4270    45.6390 hc         1 ZE0       0.041200
     46 H31          5.4380    30.1130    43.7880 hc         1 ZE0       0.041200
     47 H32          4.7090    29.3890    45.2370 hc         1 ZE0       0.041200
     48 H33          4.8400    31.1480    45.0990 hc         1 ZE0       0.041200
     49 H41          7.7360    28.8900    44.0940 hc         1 ZE0       0.049700
     50 H42          8.5300    28.9230    45.6580 hc         1 ZE0       0.049700
     51 H51          6.6520    27.5040    46.6150 hc         1 ZE0       0.038200
     52 H52          5.9280    27.4180    45.0120 hc         1 ZE0       0.038200
     53 H61          8.6870    26.3400    45.8000 hc         1 ZE0       0.047200
     54 H62          7.2350    25.3960    45.5890 hc         1 ZE0       0.047200
     55 H81          9.4860    26.9540    42.3230 hc         1 ZE0       0.042367
     56 H82          9.8500    27.3130    44.0010 hc         1 ZE0       0.042367
     57 H83         10.1370    25.6840    43.3750 hc         1 ZE0       0.042367
     58 H91          6.1310    25.3490    43.2800 ha         1 ZE0       0.168000
     59 H101         8.2810    25.5940    41.0260 ha         1 ZE0       0.171000
     60 H111         5.3320    24.7530    41.0650 ha         1 ZE0       0.170000
     61 H131         7.8410    23.8800    37.7210 hc         1 ZE0       0.041700
     62 H132         8.1470    25.5550    38.2090 hc         1 ZE0       0.041700
     63 H133         8.5410    24.2020    39.2840 hc         1 ZE0       0.041700
     64 H141         4.3170    24.5220    38.9720 ha         1 ZE0       0.169000
     65 H151         6.0970    24.2350    36.4230 ha         1 ZE0       0.173000
     66 H161         3.0900    23.9540    36.9560 ha         1 ZE0       0.170000
     67 H181         4.8190    22.6510    33.2740 hc         1 ZE0       0.042367
     68 H182         5.5100    24.2320    33.6730 hc         1 ZE0       0.042367
     69 H183         5.8080    22.8180    34.6990 hc         1 ZE0       0.042367
     70 H191         1.7260    23.9370    35.0570 ha         1 ZE0       0.170000
     71 H201         2.9790    23.3170    32.2580 ha         1 ZE0       0.171000
     72 H211         0.0980    23.6140    33.2580 ha         1 ZE0       0.173000
     73 H221         1.3540    23.1500    30.4340 ha         1 ZE0       0.168000
     74 H241        -2.7950    22.5470    31.0910 hc         1 ZE0       0.042367
     75 H242        -1.8130    22.8180    32.5050 hc         1 ZE0       0.042367
     76 H243        -2.3860    24.2050    31.5650 hc         1 ZE0       0.042367
     77 H251        -0.0280    22.6430    28.6170 ha         1 ZE0       0.169000
     78 H261        -2.9950    23.3250    28.9860 ha         1 ZE0       0.174000
     79 H271        -1.2400    22.5950    26.5140 ha         1 ZE0       0.168000
     80 H291        -5.4770    22.5170    26.2770 hc         1 ZE0       0.042367
     81 H292        -4.7890    22.7120    27.8660 hc         1 ZE0       0.042367
     82 H293        -4.9720    24.1270    26.8170 hc         1 ZE0       0.042367
     83 H301        -2.2620    22.1870    24.4510 ha         1 ZE0       0.169000
     84 H311        -5.1350    23.2270    24.1690 ha         1 ZE0       0.174000
     85 H321        -3.0330    22.1240    22.1560 ha         1 ZE0       0.169000
     86 H341        -6.9410    23.4190    20.8760 hc         1 ZE0       0.042033
     87 H342        -6.8480    22.6650    22.4660 hc         1 ZE0       0.042033
     88 H343        -6.2280    24.3060    22.2220 hc         1 ZE0       0.042033
     89 H351        -5.5210    22.6480    19.3420 ha         1 ZE0       0.169000
     90 H361        -2.6900    21.7370    20.0820 ha         1 ZE0       0.171000
     91 H371        -4.2590    21.9590    17.3960 ha         1 ZE0       0.169000
     92 H391        -2.1050    19.9040    15.6600 hc         1 ZE0       0.041033
     93 H392        -3.1370    21.3160    15.4040 hc         1 ZE0       0.041033
     94 H393        -1.3820    21.5130    15.4840 hc         1 ZE0       0.041033
     95 H401        -0.4690    20.0030    17.5540 hc         1 ZE0       0.041033
     96 H402        -0.3790    21.6060    18.2990 hc         1 ZE0       0.041033
     97 H403        -1.2480    20.2860    19.1040 hc         1 ZE0       0.041033
@<TRIPOS>BOND
     1     1     2 1   
     2     1    42 1   
     3     2     3 1   
     4     2     4 1   
     5     2     5 1   
     6     3    43 1   
     7     3    44 1   
     8     3    45 1   
     9     4    46 1   
    10     4    47 1   
    11     4    48 1   
    12     5     6 1   
    13     5    49 1   
    14     5    50 1   
    15     6     7 1   
    16     6    51 1   
    17     6    52 1   
    18     7     8 1   
    19     7    53 1   
    20     7    54 1   
    21     8     9 1   
    22     8    10 2   
    23     9    55 1   
    24     9    56 1   
    25     9    57 1   
    26    10    11 1   
    27    10    58 1   
    28    11    12 2   
    29    11    59 1   
    30    12    13 1   
    31    12    60 1   
    32    13    14 1   
    33    13    15 2   
    34    14    61 1   
    35    14    62 1   
    36    14    63 1   
    37    15    16 1   
    38    15    64 1   
    39    16    17 2   
    40    16    65 1   
    41    17    18 1   
    42    17    66 1   
    43    18    19 1   
    44    18    20 2   
    45    19    67 1   
    46    19    68 1   
    47    19    69 1   
    48    20    21 1   
    49    20    70 1   
    50    21    22 2   
    51    21    71 1   
    52    22    23 1   
    53    22    72 1   
    54    23    24 2   
    55    23    73 1   
    56    24    25 1   
    57    24    26 1   
    58    25    74 1   
    59    25    75 1   
    60    25    76 1   
    61    26    27 2   
    62    26    77 1   
    63    27    28 1   
    64    27    78 1   
    65    28    29 2   
    66    28    79 1   
    67    29    30 1   
    68    29    31 1   
    69    30    80 1   
    70    30    81 1   
    71    30    82 1   
    72    31    32 2   
    73    31    83 1   
    74    32    33 1   
    75    32    84 1   
    76    33    34 2   
    77    33    85 1   
    78    34    35 1   
    79    34    36 1   
    80    35    86 1   
    81    35    87 1   
    82    35    88 1   
    83    36    37 2   
    84    36    89 1   
    85    37    38 1   
    86    37    90 1   
    87    38    39 2   
    88    38    91 1   
    89    39    40 1   
    90    39    41 1   
    91    40    92 1   
    92    40    93 1   
    93    40    94 1   
    94    41    95 1   
    95    41    96 1   
    96    41    97 1   
@<TRIPOS>SUBSTRUCTURE
     1 ZE0         1 TEMP              0 ****  ****    0 ROOT
