@<TRIPOS>MOLECULE
ZE7
   37    37     1     0     0
SMALL
abcg2


@<TRIPOS>ATOM
      1 O1           6.6190    -0.1260    -0.0790 oh         1 ZE7      -0.662000
      2 C1           5.4120     0.4100     0.4230 c3         1 ZE7       0.163600
      3 C2           4.2410    -0.3140    -0.2100 c3         1 ZE7      -0.081400
      4 C3           2.9030     0.2220     0.2810 c3         1 ZE7      -0.075400
      5 C4           1.7080    -0.5150    -0.3110 c3         1 ZE7      -0.074400
      6 C5           0.3720     0.0350     0.1720 c3         1 ZE7      -0.074400
      7 C6          -0.8230    -0.7820    -0.3040 c3         1 ZE7      -0.071400
      8 C7          -2.1740    -0.2560     0.1800 c6         1 ZE7      -0.059700
      9 C8          -3.2720    -1.3070     0.0210 c6         1 ZE7      -0.070400
     10 C9          -4.6240    -0.8040     0.5170 c6         1 ZE7      -0.072900
     11 C10         -5.0240     0.4920    -0.1810 c6         1 ZE7      -0.074400
     12 C11         -3.9380     1.5520    -0.0390 c6         1 ZE7      -0.072900
     13 C12         -2.5860     1.0390    -0.5240 c6         1 ZE7      -0.070400
     14 H1O          7.3490     0.3500     0.3260 ho         1 ZE7       0.442000
     15 H11          5.3530     0.3050     1.5150 h1         1 ZE7       0.014700
     16 H12          5.3320     1.4850     0.2070 h1         1 ZE7       0.014700
     17 H21          4.2980    -0.2170    -1.2990 hc         1 ZE7       0.052200
     18 H22          4.3120    -1.3830     0.0150 hc         1 ZE7       0.052200
     19 H31          2.8600     0.1520     1.3740 hc         1 ZE7       0.036700
     20 H32          2.8260     1.2890     0.0440 hc         1 ZE7       0.036700
     21 H41          1.7520    -0.4650    -1.4040 hc         1 ZE7       0.039200
     22 H42          1.7780    -1.5780    -0.0540 hc         1 ZE7       0.039200
     23 H51          0.3670     0.0590     1.2680 hc         1 ZE7       0.037200
     24 H52          0.2730     1.0760    -0.1510 hc         1 ZE7       0.037200
     25 H61         -0.8260    -0.8350    -1.3990 hc         1 ZE7       0.038200
     26 H62         -0.6970    -1.8130     0.0450 hc         1 ZE7       0.038200
     27 H71         -2.0810    -0.0390     1.2540 hc         1 ZE7       0.043700
     28 H81         -3.3510    -1.5880    -1.0360 hc         1 ZE7       0.037700
     29 H82         -2.9890    -2.2170     0.5590 hc         1 ZE7       0.037700
     30 H91         -5.3910    -1.5690     0.3670 hc         1 ZE7       0.037200
     31 H92         -4.5690    -0.6300     1.5970 hc         1 ZE7       0.037200
     32 H101        -5.1960     0.2900    -1.2440 hc         1 ZE7       0.037200
     33 H102        -5.9710     0.8620     0.2210 hc         1 ZE7       0.037200
     34 H111        -4.2170     2.4540    -0.5910 hc         1 ZE7       0.037200
     35 H112        -3.8570     1.8500     1.0130 hc         1 ZE7       0.037200
     36 H121        -1.8240     1.8100    -0.3850 hc         1 ZE7       0.037700
     37 H122        -2.6390     0.8500    -1.6040 hc         1 ZE7       0.037700
@<TRIPOS>BOND
     1     1     2 1   
     2     1    14 1   
     3     2     3 1   
     4     2    15 1   
     5     2    16 1   
     6     3     4 1   
     7     3    17 1   
     8     3    18 1   
     9     4     5 1   
    10     4    19 1   
    11     4    20 1   
    12     5     6 1   
    13     5    21 1   
    14     5    22 1   
    15     6     7 1   
    16     6    23 1   
    17     6    24 1   
    18     7     8 1   
    19     7    25 1   
    20     7    26 1   
    21     8     9 1   
    22     8    13 1   
    23     8    27 1   
    24     9    10 1   
    25     9    28 1   
    26     9    29 1   
    27    10    11 1   
    28    10    30 1   
    29    10    31 1   
    30    11    12 1   
    31    11    32 1   
    32    11    33 1   
    33    12    13 1   
    34    12    34 1   
    35    12    35 1   
    36    13    36 1   
    37    13    37 1   
@<TRIPOS>SUBSTRUCTURE
     1 ZE7         1 TEMP              0 ****  ****    0 ROOT
