@<TRIPOS>MOLECULE
ZE7
   37    37     1     0     0
SMALL
No Charge or Current Charge


@<TRIPOS>ATOM
      1 O1           6.7230    -0.1530    -0.1100 oh         1 ZE7      -0.662000
      2 C1           5.5070     0.4900     0.2840 c3         1 ZE7       0.163600
      3 C2           4.3010    -0.3690    -0.1440 c3         1 ZE7      -0.081400
      4 C3           2.9450     0.2600     0.2460 c3         1 ZE7      -0.075400
      5 C4           1.7340    -0.5980    -0.1810 c3         1 ZE7      -0.074400
      6 C5           0.3790     0.0310     0.2100 c3         1 ZE7      -0.074400
      7 C6          -0.8340    -0.8280    -0.2220 c3         1 ZE7      -0.071400
      8 C7          -2.2290    -0.3030     0.2390 c6         1 ZE7      -0.059700
      9 C8          -3.3440    -1.3300    -0.1090 c6         1 ZE7      -0.070400
     10 C9          -4.7400    -0.8420     0.3500 c6         1 ZE7      -0.072900
     11 C10         -5.0740     0.5420    -0.2550 c6         1 ZE7      -0.074400
     12 C11         -3.9770     1.5770     0.0920 c6         1 ZE7      -0.072900
     13 C12         -2.5780     1.0920    -0.3620 c6         1 ZE7      -0.070400
     14 H1O          7.4600     0.4280     0.1820 ho         1 ZE7       0.442000
     15 H11          5.4860     0.6290     1.3730 h1         1 ZE7       0.014700
     16 H12          5.4320     1.4800    -0.1860 h1         1 ZE7       0.014700
     17 H21          4.3310    -0.5150    -1.2310 hc         1 ZE7       0.052200
     18 H22          4.3850    -1.3610     0.3170 hc         1 ZE7       0.052200
     19 H31          2.9160     0.4080     1.3330 hc         1 ZE7       0.036700
     20 H32          2.8630     1.2530    -0.2140 hc         1 ZE7       0.036700
     21 H41          1.7620    -0.7450    -1.2680 hc         1 ZE7       0.039200
     22 H42          1.8160    -1.5910     0.2790 hc         1 ZE7       0.039200
     23 H51          0.3490     0.1750     1.2980 hc         1 ZE7       0.037200
     24 H52          0.3090     1.0240    -0.2480 hc         1 ZE7       0.037200
     25 H61         -0.8200    -0.9270    -1.3150 hc         1 ZE7       0.038200
     26 H62         -0.6870    -1.8400     0.1750 hc         1 ZE7       0.038200
     27 H71         -2.1800    -0.2080     1.3330 hc         1 ZE7       0.043700
     28 H81         -3.3580    -1.5120    -1.1930 hc         1 ZE7       0.037700
     29 H82         -3.1240    -2.2970     0.3640 hc         1 ZE7       0.037700
     30 H91         -5.5060    -1.5720     0.0550 hc         1 ZE7       0.037200
     31 H92         -4.7700    -0.7840     1.4470 hc         1 ZE7       0.037200
     32 H101        -5.1710     0.4570    -1.3460 hc         1 ZE7       0.037200
     33 H102        -6.0460     0.8890     0.1190 hc         1 ZE7       0.037200
     34 H111        -4.2100     2.5400    -0.3850 hc         1 ZE7       0.037200
     35 H112        -3.9710     1.7600     1.1750 hc         1 ZE7       0.037200
     36 H121        -1.8320     1.8380    -0.0590 hc         1 ZE7       0.037700
     37 H122        -2.5430     1.0440    -1.4600 hc         1 ZE7       0.037700
@<TRIPOS>BOND
     1     1     2 1   
     2     1    14 1   
     3     2     3 1   
     4     2    15 1   
     5     2    16 1   
     6     3     4 1   
     7     3    17 1   
     8     3    18 1   
     9     4     5 1   
    10     4    19 1   
    11     4    20 1   
    12     5     6 1   
    13     5    21 1   
    14     5    22 1   
    15     6     7 1   
    16     6    23 1   
    17     6    24 1   
    18     7     8 1   
    19     7    25 1   
    20     7    26 1   
    21     8     9 1   
    22     8    13 1   
    23     8    27 1   
    24     9    10 1   
    25     9    28 1   
    26     9    29 1   
    27    10    11 1   
    28    10    30 1   
    29    10    31 1   
    30    11    12 1   
    31    11    32 1   
    32    11    33 1   
    33    12    13 1   
    34    12    34 1   
    35    12    35 1   
    36    13    36 1   
    37    13    37 1   
@<TRIPOS>SUBSTRUCTURE
     1 ZE7         1 TEMP              0 ****  ****    0 ROOT
