@<TRIPOS>MOLECULE
ZE8
   28    29     1     0     0
SMALL
No Charge or Current Charge


@<TRIPOS>ATOM
      1 N1           1.4580     0.0310     0.4150 n          1 ZE8      -0.301000
      2 C2           1.6880    -0.7870    -0.7140 c          1 ZE8       0.688400
      3 O2           0.7930    -1.2190    -1.4210 o          1 ZE8      -0.543000
      4 N3           2.9880    -1.0790    -1.0460 nc         1 ZE8      -0.658100
      5 C4           4.0150    -0.6140    -0.3600 cd         1 ZE8       0.563500
      6 C5           3.8120     0.2370     0.7710 cd         1 ZE8      -0.457600
      7 C6           2.5250     0.5490     1.1410 cc         1 ZE8       0.019600
      8 C1           0.0730     0.3370     0.8780 c5         1 ZE8       0.319700
      9 C7          -0.4960     1.5120    -0.0060 c5         1 ZE8       0.110300
     10 O1          -1.0250     2.5990     0.7660 oh         1 ZE8      -0.722000
     11 C3          -1.6930     0.8130    -0.7240 c5         1 ZE8       0.094300
     12 O3          -2.7230     1.7760    -1.0450 oh         1 ZE8      -0.716000
     13 C8          -2.1120    -0.2300     0.3630 c5         1 ZE8       0.174300
     14 O4          -0.8380    -0.7760     0.7660 os         1 ZE8      -0.426000
     15 C9          -3.0600    -1.3560    -0.1370 c3         1 ZE8       0.162600
     16 O5          -3.5240    -2.1790     0.9520 oh         1 ZE8      -0.709000
     17 H1           4.9920    -0.9130    -0.7190 h4         1 ZE8       0.031800
     18 H2           4.6670     0.6190     1.3190 ha         1 ZE8       0.212000
     19 H3           2.2350     1.1820     1.9790 h4         1 ZE8       0.207000
     20 H4           0.1410     0.6500     1.9270 h2         1 ZE8       0.079700
     21 H5           0.2430     1.8770    -0.7350 h1         1 ZE8       0.078700
     22 H6          -1.8920     2.7680     0.3070 ho         1 ZE8       0.530000
     23 H7          -1.3420     0.2960    -1.6300 h1         1 ZE8       0.088700
     24 H8          -3.2490     1.4170    -1.8010 ho         1 ZE8       0.518000
     25 H9          -2.5770     0.2700     1.2240 h1         1 ZE8       0.077700
     26 H10         -3.9160    -0.8910    -0.6440 h1         1 ZE8       0.037200
     27 H11         -2.5260    -1.9630    -0.8810 h1         1 ZE8       0.037200
     28 H12         -4.0610    -2.9060     0.5570 ho         1 ZE8       0.506000
@<TRIPOS>BOND
     1     1     2 1   
     2     1     7 1   
     3     1     8 1   
     4     2     3 2   
     5     2     4 1   
     6     4     5 2   
     7     5     6 1   
     8     5    17 1   
     9     6     7 2   
    10     6    18 1   
    11     7    19 1   
    12     8     9 1   
    13     8    14 1   
    14     8    20 1   
    15     9    10 1   
    16     9    11 1   
    17     9    21 1   
    18    10    22 1   
    19    11    12 1   
    20    11    13 1   
    21    11    23 1   
    22    12    24 1   
    23    13    14 1   
    24    13    15 1   
    25    13    25 1   
    26    15    16 1   
    27    15    26 1   
    28    15    27 1   
    29    16    28 1   
@<TRIPOS>SUBSTRUCTURE
     1 ZE8         1 TEMP              0 ****  ****    0 ROOT
