@<TRIPOS>MOLECULE
ZE8
   28    29     1     0     0
SMALL
bcc


@<TRIPOS>ATOM
      1 N1           1.3710     0.1400     0.3790 n          1 ZE8      -0.368000
      2 C2           1.5250    -0.5630    -0.8240 c          1 ZE8       0.830900
      3 O2           0.5740    -0.7170    -1.5680 o          1 ZE8      -0.618500
      4 N3           2.7660    -1.0510    -1.1160 nc         1 ZE8      -0.658100
      5 C4           3.7600    -0.8380    -0.3030 cd         1 ZE8       0.563500
      6 C5           3.6530    -0.1230     0.9030 cd         1 ZE8      -0.407600
      7 C6           2.4160     0.3440     1.2080 cc         1 ZE8       0.069600
      8 C1           0.0530     0.6360     0.7760 c5         1 ZE8       0.296500
      9 C7          -0.6240     1.6070    -0.2070 c5         1 ZE8       0.087100
     10 O1          -1.0350     2.7360     0.5210 oh         1 ZE8      -0.599800
     11 C3          -1.8450     0.8120    -0.7090 c5         1 ZE8       0.071100
     12 O3          -2.9880     1.6150    -0.8640 oh         1 ZE8      -0.593800
     13 C8          -2.0770    -0.2010     0.4110 c5         1 ZE8       0.151100
     14 O4          -0.8010    -0.4470     0.9810 os         1 ZE8      -0.379600
     15 C9          -2.6810    -1.4910    -0.0850 c3         1 ZE8       0.139400
     16 O5          -2.9590    -2.3260     1.0130 oh         1 ZE8      -0.586800
     17 H1           4.7210    -1.2510    -0.5940 h4         1 ZE8       0.031800
     18 H2           4.4950     0.0380     1.5560 ha         1 ZE8       0.162000
     19 H3           2.2100     0.8940     2.1160 h4         1 ZE8       0.157000
     20 H4           0.2270     1.1740     1.7130 h2         1 ZE8       0.079700
     21 H5           0.0440     1.8970    -1.0260 h1         1 ZE8       0.078700
     22 H6          -1.9250     2.9580     0.2140 ho         1 ZE8       0.431000
     23 H7          -1.5910     0.3010    -1.6370 h1         1 ZE8       0.088700
     24 H8          -3.0120     1.9500    -1.7660 ho         1 ZE8       0.419000
     25 H9          -2.7400     0.2480     1.1650 h1         1 ZE8       0.077700
     26 H10         -3.5910    -1.2330    -0.6420 h1         1 ZE8       0.037200
     27 H11         -1.9840    -1.9580    -0.7930 h1         1 ZE8       0.037200
     28 H12         -3.3670    -3.1310     0.6810 ho         1 ZE8       0.407000
@<TRIPOS>BOND
     1     1     2 1   
     2     1     7 1   
     3     1     8 1   
     4     2     3 2   
     5     2     4 1   
     6     4     5 2   
     7     5     6 1   
     8     5    17 1   
     9     6     7 2   
    10     6    18 1   
    11     7    19 1   
    12     8     9 1   
    13     8    14 1   
    14     8    20 1   
    15     9    10 1   
    16     9    11 1   
    17     9    21 1   
    18    10    22 1   
    19    11    12 1   
    20    11    13 1   
    21    11    23 1   
    22    12    24 1   
    23    13    14 1   
    24    13    15 1   
    25    13    25 1   
    26    15    16 1   
    27    15    26 1   
    28    15    27 1   
    29    16    28 1   
@<TRIPOS>SUBSTRUCTURE
     1 ZE8         1 TEMP              0 ****  ****    0 ROOT
