@<TRIPOS>MOLECULE
ZE9
   35    37     1     0     0
SMALL
abcg2


@<TRIPOS>ATOM
      1 C10          6.2410   -19.3710    21.2010 c5         1 ZE9       0.059400
      2 C15          2.9070   -20.5100    20.0290 cc         1 ZE9      -0.193000
      3 C17          8.2360   -20.8400    20.9210 c          1 ZE9       0.640100
      4 C02          9.6410   -18.7650    24.8770 cc         1 ZE9       0.144300
      5 O03          8.7520   -19.0660    23.8990 os         1 ZE9      -0.236000
      6 C04          7.5750   -19.3910    24.4840 cc         1 ZE9       0.133300
      7 C05          7.6940   -19.2980    25.8280 cd         1 ZE9      -0.166000
      8 C06          9.0400   -18.8890    26.0850 cd         1 ZE9      -0.188000
      9 C07          6.4440   -19.7700    23.6010 c5         1 ZE9       0.113200
     10 N08          6.7610   -20.9770    22.8160 n7         1 ZE9      -0.578400
     11 N09          7.0760   -20.5180    21.5440 n          1 ZE9      -0.306200
     12 C11          6.0770   -18.6780    22.5600 c5         1 ZE9      -0.107400
     13 C12          4.9510   -19.8340    20.6130 cd         1 ZE9       0.107300
     14 O13          5.0190   -20.3740    19.3760 os         1 ZE9      -0.216000
     15 C14          3.7800   -20.7800    19.0330 cd         1 ZE9       0.131900
     16 C16          3.6740   -19.8920    21.0660 cc         1 ZE9      -0.181000
     17 O18          8.5500   -20.3180    19.8630 o          1 ZE9      -0.595100
     18 C19          9.0760   -21.8980    21.5890 c3         1 ZE9      -0.158100
     19 H1           6.7710   -18.7390    20.4880 h1         1 ZE9       0.112700
     20 H3          11.5020   -19.1780    23.9000 hc         1 ZE9       0.055700
     21 H4          11.0110   -17.4880    23.8380 hc         1 ZE9       0.055700
     22 H5          11.6130   -18.1740    25.3450 hc         1 ZE9       0.055700
     23 H6           6.9180   -19.4970    26.5500 ha         1 ZE9       0.139000
     24 H7           9.5010   -18.7130    27.0440 ha         1 ZE9       0.141000
     25 H8           5.5960   -19.9950    24.2480 h1         1 ZE9       0.071700
     26 H9           5.9280   -21.5550    22.7490 hn         1 ZE9       0.423000
     27 H10          6.7540   -17.8270    22.6170 hc         1 ZE9       0.070700
     28 H11          5.0730   -18.2930    22.7210 hc         1 ZE9       0.070700
     29 H12          3.6700   -21.2330    18.0610 h4         1 ZE9       0.055100
     30 H13          3.3100   -19.5380    22.0160 ha         1 ZE9       0.136000
     31 H14          9.9390   -22.1140    20.9650 hc         1 ZE9       0.063700
     32 H15          9.4210   -21.5610    22.5660 hc         1 ZE9       0.063700
     33 H16          8.5140   -22.8170    21.7470 hc         1 ZE9       0.063700
     34 H2           1.8500   -20.7220    20.0340 ha         1 ZE9       0.142000
     35 C01         11.0100   -18.3830    24.4630 c3         1 ZE9      -0.124400
@<TRIPOS>BOND
     1     1    11 1   
     2     1    12 1   
     3     1    13 1   
     4     1    19 1   
     5     2    15 2   
     6     2    16 1   
     7     2    34 1   
     8     3    11 1   
     9     3    17 2   
    10     3    18 1   
    11     4     5 1   
    12     4     8 2   
    13     4    35 1   
    14     5     6 1   
    15     6     7 2   
    16     6     9 1   
    17     7     8 1   
    18     7    23 1   
    19     8    24 1   
    20     9    10 1   
    21     9    12 1   
    22     9    25 1   
    23    10    11 1   
    24    10    26 1   
    25    12    27 1   
    26    12    28 1   
    27    13    14 1   
    28    13    16 2   
    29    14    15 1   
    30    15    29 1   
    31    16    30 1   
    32    18    31 1   
    33    18    32 1   
    34    18    33 1   
    35    20    35 1   
    36    21    35 1   
    37    22    35 1   
@<TRIPOS>SUBSTRUCTURE
     1 ZE9         1 TEMP              0 ****  ****    0 ROOT
