@<TRIPOS>MOLECULE
ZE9
   35    37     1     0     0
SMALL
No Charge or Current Charge


@<TRIPOS>ATOM
      1 C10          6.5030   -19.8390    21.6580 c5         1 ZE9       0.059400
      2 C15          3.8850   -20.5870    19.1950 cc         1 ZE9      -0.193000
      3 C17          7.2420   -22.2360    22.0320 c          1 ZE9       0.640100
      4 C02          9.7470   -17.7130    24.2540 cc         1 ZE9       0.144300
      5 O03          8.3870   -17.6900    24.0410 os         1 ZE9      -0.236000
      6 C04          7.9500   -18.9890    24.1790 cc         1 ZE9       0.133300
      7 C05          9.0040   -19.8080    24.4860 cd         1 ZE9      -0.166000
      8 C06         10.1520   -18.9910    24.5300 cd         1 ZE9      -0.188000
      9 C07          6.4740   -19.3380    24.0130 c5         1 ZE9       0.113200
     10 N08          6.2230   -20.7980    23.8940 n7         1 ZE9      -0.578400
     11 N09          6.6280   -21.0450    22.5150 n          1 ZE9      -0.306200
     12 C11          5.9070   -18.8140    22.6650 c5         1 ZE9      -0.107400
     13 C12          5.5870   -19.9520    20.4490 cd         1 ZE9       0.107300
     14 O13          5.7520   -19.2900    19.2560 os         1 ZE9      -0.216000
     15 C14          4.6780   -19.7100    18.5000 cd         1 ZE9       0.131900
     16 C16          4.4730   -20.7460    20.4640 cc         1 ZE9      -0.181000
     17 O18          7.6540   -22.3280    20.8810 o          1 ZE9      -0.595100
     18 C19          7.3710   -23.4070    23.0060 c3         1 ZE9      -0.158100
     19 H1           7.4970   -19.5190    21.3160 h1         1 ZE9       0.112700
     20 H3          11.5890   -16.6060    24.3350 hc         1 ZE9       0.055700
     21 H4          10.4070   -15.9800    23.1700 hc         1 ZE9       0.055700
     22 H5          10.1680   -15.7110    24.9090 hc         1 ZE9       0.055700
     23 H6           8.9560   -20.8770    24.6610 ha         1 ZE9       0.139000
     24 H7          11.1680   -19.3070    24.7430 ha         1 ZE9       0.141000
     25 H8           5.9220   -18.9180    24.8660 h1         1 ZE9       0.071700
     26 H9           5.2120   -20.9840    23.9760 hn         1 ZE9       0.423000
     27 H10          6.1980   -17.7820    22.4410 hc         1 ZE9       0.070700
     28 H11          4.8110   -18.8440    22.6740 hc         1 ZE9       0.070700
     29 H12          4.5880   -19.3180    17.4950 h4         1 ZE9       0.055100
     30 H13          4.1060   -21.3690    21.2740 ha         1 ZE9       0.136000
     31 H14          7.8400   -24.2860    22.5500 hc         1 ZE9       0.063700
     32 H15          7.9170   -23.0730    23.8940 hc         1 ZE9       0.063700
     33 H16          6.3810   -23.6400    23.4130 hc         1 ZE9       0.063700
     34 H2           2.9770   -21.0690    18.8440 ha         1 ZE9       0.142000
     35 C01         10.5210   -16.4320    24.1620 c3         1 ZE9      -0.124400
@<TRIPOS>BOND
     1     1    11 1   
     2     1    12 1   
     3     1    13 1   
     4     1    19 1   
     5     2    15 2   
     6     2    16 1   
     7     2    34 1   
     8     3    11 1   
     9     3    17 2   
    10     3    18 1   
    11     4     5 1   
    12     4     8 2   
    13     4    35 1   
    14     5     6 1   
    15     6     7 2   
    16     6     9 1   
    17     7     8 1   
    18     7    23 1   
    19     8    24 1   
    20     9    10 1   
    21     9    12 1   
    22     9    25 1   
    23    10    11 1   
    24    10    26 1   
    25    12    27 1   
    26    12    28 1   
    27    13    14 1   
    28    13    16 2   
    29    14    15 1   
    30    15    29 1   
    31    16    30 1   
    32    18    31 1   
    33    18    32 1   
    34    18    33 1   
    35    20    35 1   
    36    21    35 1   
    37    22    35 1   
@<TRIPOS>SUBSTRUCTURE
     1 ZE9         1 TEMP              0 ****  ****    0 ROOT
