@<TRIPOS>MOLECULE
ZEA
   29    30     1     0     0
SMALL
bcc


@<TRIPOS>ATOM
      1 O16          4.6760     1.2940    -1.2260 oh         1 ZEA      -0.594800
      2 C14          4.8910     0.5560    -0.0520 c3         1 ZEA       0.173600
      3 C13          3.7050    -0.2920     0.3080 c2         1 ZEA      -0.108400
      4 C15          3.9630    -1.1630     1.5020 c3         1 ZEA      -0.061900
      5 C12          2.5720    -0.2530    -0.3930 c2         1 ZEA      -0.176200
      6 C11          1.3380    -1.0610    -0.1430 c3         1 ZEA       0.260000
      7 N10          0.2180    -0.1780     0.1230 nu         1 ZEA      -0.853900
      8 C6          -1.0550    -0.4450    -0.1830 ca         1 ZEA       0.779200
      9 C5          -2.1000     0.4430     0.1420 ca         1 ZEA      -0.233200
     10 N9          -2.1220     1.6550     0.7810 nc         1 ZEA      -0.551100
     11 C4          -3.3770     0.0610    -0.2430 ca         1 ZEA       0.452800
     12 N7          -4.1820     1.0730     0.1790 na         1 ZEA      -0.362000
     13 C8          -3.3800     1.9930     0.7820 cd         1 ZEA       0.395700
     14 N3          -3.7060    -1.0610    -0.8860 nb         1 ZEA      -0.749000
     15 C2          -2.6470    -1.8090    -1.1330 ca         1 ZEA       0.709900
     16 N1          -1.3730    -1.5750    -0.8230 nb         1 ZEA      -0.829000
     17 H16          5.4450     1.8520    -1.3710 ho         1 ZEA       0.408000
     18 H141         5.7660    -0.1060    -0.1430 h1         1 ZEA       0.024200
     19 H142         5.1050     1.2120     0.8050 h1         1 ZEA       0.024200
     20 H151         4.4520    -0.5910     2.2940 hc         1 ZEA       0.043700
     21 H152         3.0620    -1.6030     1.9210 hc         1 ZEA       0.043700
     22 H153         4.6410    -1.9800     1.2440 hc         1 ZEA       0.043700
     23 H12          2.5030     0.4170    -1.2430 ha         1 ZEA       0.150000
     24 H111         1.0970    -1.6460    -1.0310 h1         1 ZEA       0.063200
     25 H112         1.4660    -1.7760     0.6740 h1         1 ZEA       0.063200
     26 H10          0.3960     0.6430     0.6790 hn         1 ZEA       0.457800
     27 H7          -5.1830     1.1370     0.0690 hn         1 ZEA       0.318700
     28 H8          -3.7850     2.9000     1.2040 h5         1 ZEA       0.065800
     29 H2          -2.8330    -2.7420    -1.6550 h5         1 ZEA       0.045100
@<TRIPOS>BOND
     1     1     2 1   
     2     1    17 1   
     3     2     3 1   
     4     2    18 1   
     5     2    19 1   
     6     3     4 1   
     7     3     5 2   
     8     4    20 1   
     9     4    21 1   
    10     4    22 1   
    11     5     6 1   
    12     5    23 1   
    13     6     7 1   
    14     6    24 1   
    15     6    25 1   
    16     7     8 1   
    17     7    26 1   
    18     8     9 ar  
    19     8    16 ar  
    20     9    10 1   
    21     9    11 ar  
    22    10    13 2   
    23    11    12 1   
    24    11    14 ar  
    25    12    13 1   
    26    12    27 1   
    27    13    28 1   
    28    14    15 ar  
    29    15    16 ar  
    30    15    29 1   
@<TRIPOS>SUBSTRUCTURE
     1 ZEA         1 TEMP              0 ****  ****    0 ROOT
