@<TRIPOS>MOLECULE
ZEA
   29    30     1     0     0
SMALL
No Charge or Current Charge


@<TRIPOS>ATOM
      1 O16          5.8050    -0.0260    -0.3300 oh         1 ZEA      -0.657000
      2 C14          4.7250     0.7770     0.1580 c3         1 ZEA       0.196800
      3 C13          3.4370    -0.0310     0.1500 c2         1 ZEA      -0.108400
      4 C15          3.0650    -0.5670     1.5260 c3         1 ZEA      -0.061900
      5 C12          2.7240    -0.2360    -0.9770 c2         1 ZEA      -0.226200
      6 C11          1.4420    -1.0190    -1.1260 c3         1 ZEA       0.260000
      7 N10          0.3430    -0.1940    -0.6250 nu         1 ZEA      -0.909100
      8 C6          -1.0010    -0.5320    -0.5410 ca         1 ZEA       0.450900
      9 C5          -1.9090     0.2770     0.1770 ca         1 ZEA      -0.102600
     10 N9          -1.6780     1.4590     0.8750 nc         1 ZEA      -0.551100
     11 C4          -3.2220    -0.1130     0.2290 ca         1 ZEA       0.124500
     12 N7          -3.8830     0.8220     0.9720 na         1 ZEA      -0.412300
     13 C8          -2.9050     1.7560     1.3420 cd         1 ZEA       0.395700
     14 N3          -3.6660    -1.2300    -0.3760 nb         1 ZEA      -0.223000
     15 C2          -2.7320    -1.9500    -1.0420 ca         1 ZEA       0.183900
     16 N1          -1.4150    -1.6580    -1.1550 nb         1 ZEA      -0.303000
     17 H16          6.6080     0.5400    -0.3100 ho         1 ZEA       0.447000
     18 H141         4.9450     1.1310     1.1750 h1         1 ZEA       0.024200
     19 H142         4.5990     1.6660    -0.4740 h1         1 ZEA       0.024200
     20 H151         2.9140     0.2530     2.2380 hc         1 ZEA       0.043700
     21 H152         2.1430    -1.1590     1.5150 hc         1 ZEA       0.043700
     22 H153         3.8590    -1.2100     1.9230 hc         1 ZEA       0.043700
     23 H12          3.0760     0.1820    -1.9200 ha         1 ZEA       0.200000
     24 H111         1.2790    -1.2700    -2.1840 h1         1 ZEA       0.063200
     25 H112         1.5050    -1.9640    -0.5660 h1         1 ZEA       0.063200
     26 H10          0.5910     0.6400    -0.0940 hn         1 ZEA       0.513000
     27 H7          -4.8650     0.8470     1.2100 hn         1 ZEA       0.369000
     28 H8          -3.1570     2.6200     1.9470 h5         1 ZEA       0.065800
     29 H2          -3.0750    -2.8570    -1.5350 h5         1 ZEA       0.045100
@<TRIPOS>BOND
     1     1     2 1   
     2     1    17 1   
     3     2     3 1   
     4     2    18 1   
     5     2    19 1   
     6     3     4 1   
     7     3     5 2   
     8     4    20 1   
     9     4    21 1   
    10     4    22 1   
    11     5     6 1   
    12     5    23 1   
    13     6     7 1   
    14     6    24 1   
    15     6    25 1   
    16     7     8 1   
    17     7    26 1   
    18     8     9 ar  
    19     8    16 ar  
    20     9    10 1   
    21     9    11 ar  
    22    10    13 2   
    23    11    12 1   
    24    11    14 ar  
    25    12    13 1   
    26    12    27 1   
    27    13    28 1   
    28    14    15 ar  
    29    15    16 ar  
    30    15    29 1   
@<TRIPOS>SUBSTRUCTURE
     1 ZEA         1 TEMP              0 ****  ****    0 ROOT
