@<TRIPOS>MOLECULE
ZEB
   31    32     1     0     0
SMALL
abcg2


@<TRIPOS>ATOM
      1 N1          -0.4230     0.1940    -0.8980 n          1 ZEB      -0.323000
      2 C2           0.4120    -0.8450    -1.2640 c          1 ZEB       0.630000
      3 O2           0.9480    -1.5800    -0.4500 o          1 ZEB      -0.598000
      4 N3           0.5460    -1.0310    -2.6020 ns         1 ZEB      -0.533900
      5 C4           0.2820    -0.0620    -3.6370 c6         1 ZEB       0.392900
      6 O4           1.4000     0.7440    -3.9280 oh         1 ZEB      -0.662000
      7 C5          -0.8170     0.8250    -3.1720 c2         1 ZEB      -0.323200
      8 C6          -1.0770     0.9350    -1.8740 c2         1 ZEB      -0.009400
      9 C1          -0.6650     0.5170     0.4910 c5         1 ZEB       0.351700
     10 C7          -1.2470    -0.5880     1.3730 c5         1 ZEB       0.131300
     11 O1          -2.6210    -0.6790     1.1390 oh         1 ZEB      -0.690000
     12 C3          -0.8310    -0.1040     2.7630 c5         1 ZEB       0.100300
     13 O3          -1.7640     0.8590     3.1850 oh         1 ZEB      -0.695000
     14 C8           0.5460     0.5060     2.4750 c5         1 ZEB       0.138300
     15 O6           0.5130     0.9450     1.1170 os         1 ZEB      -0.425000
     16 C9           1.6880    -0.4620     2.7100 c3         1 ZEB       0.149600
     17 O5           2.8970     0.2070     2.4370 oh         1 ZEB      -0.703000
     18 HN3          1.1310    -1.8170    -2.8490 hn         1 ZEB       0.315500
     19 H4          -0.0120    -0.6220    -4.5300 h2         1 ZEB       0.045700
     20 HO4          2.0110     0.2420    -4.4790 ho         1 ZEB       0.440000
     21 H5          -1.3660     1.4150    -3.8900 ha         1 ZEB       0.204000
     22 H6          -1.8350     1.6110    -1.5030 h4         1 ZEB       0.202000
     23 H1          -1.3960     1.3350     0.4630 h2         1 ZEB       0.078700
     24 H2          -0.7450    -1.5380     1.1770 h1         1 ZEB       0.077700
     25 HO2         -2.9540    -1.4700     1.5730 ho         1 ZEB       0.511000
     26 H3          -0.7600    -0.9310     3.4810 h1         1 ZEB       0.049700
     27 HO3         -1.4820     1.1960     4.0410 ho         1 ZEB       0.505000
     28 H7           0.7060     1.3820     3.1160 h1         1 ZEB       0.074700
     29 H5'1         1.5690    -1.3520     2.0830 h1         1 ZEB       0.030200
     30 H5'2         1.6350    -0.7880     3.7570 h1         1 ZEB       0.030200
     31 HO5          3.6170    -0.4190     2.5560 ho         1 ZEB       0.504000
@<TRIPOS>BOND
     1     1     2 1   
     2     1     8 1   
     3     1     9 1   
     4     2     3 2   
     5     2     4 1   
     6     4     5 1   
     7     4    18 1   
     8     5     6 1   
     9     5     7 1   
    10     5    19 1   
    11     6    20 1   
    12     7     8 2   
    13     7    21 1   
    14     8    22 1   
    15     9    10 1   
    16     9    15 1   
    17     9    23 1   
    18    10    11 1   
    19    10    12 1   
    20    10    24 1   
    21    11    25 1   
    22    12    13 1   
    23    12    14 1   
    24    12    26 1   
    25    13    27 1   
    26    14    15 1   
    27    14    16 1   
    28    14    28 1   
    29    16    17 1   
    30    16    29 1   
    31    16    30 1   
    32    17    31 1   
@<TRIPOS>SUBSTRUCTURE
     1 ZEB         1 TEMP              0 ****  ****    0 ROOT
