@<TRIPOS>MOLECULE
ZEB
   31    32     1     0     0
SMALL
No Charge or Current Charge


@<TRIPOS>ATOM
      1 N1          -0.3080     0.2700    -0.9160 n          1 ZEB      -0.323000
      2 C2           0.7800    -0.5220    -1.3440 c          1 ZEB       0.630000
      3 O2           1.5470    -1.0910    -0.5850 o          1 ZEB      -0.598000
      4 N3           0.9460    -0.6810    -2.6970 ns         1 ZEB      -0.533900
      5 C4           0.1190    -0.1250    -3.7460 c6         1 ZEB       0.392900
      6 O4           0.9180     0.7570    -4.5040 oh         1 ZEB      -0.662000
      7 C5          -1.0270     0.6560    -3.1690 c2         1 ZEB      -0.323200
      8 C6          -1.1980     0.8250    -1.8550 c2         1 ZEB      -0.009400
      9 C1          -0.5170     0.6040     0.5200 c5         1 ZEB       0.351700
     10 C7          -1.1450    -0.6300     1.2430 c5         1 ZEB       0.131300
     11 O1          -2.5500    -0.8240     1.0060 oh         1 ZEB      -0.690000
     12 C3          -0.9070    -0.1620     2.7060 c5         1 ZEB       0.100300
     13 O3          -1.8780     0.8370     3.0770 oh         1 ZEB      -0.695000
     14 C8           0.5570     0.4120     2.6010 c5         1 ZEB       0.138300
     15 O6           0.6960     0.9080     1.2370 os         1 ZEB      -0.425000
     16 C9           1.6590    -0.6530     2.8840 c3         1 ZEB       0.149600
     17 O5           2.9570    -0.0440     3.0160 oh         1 ZEB      -0.703000
     18 HN3          1.7100    -1.2830    -2.9680 hn         1 ZEB       0.315500
     19 H4          -0.2590    -0.9430    -4.3810 h2         1 ZEB       0.045700
     20 HO4          1.6240     0.2030    -4.8960 ho         1 ZEB       0.440000
     21 H5          -1.7240     1.0850    -3.8880 ha         1 ZEB       0.204000
     22 H6          -2.0340     1.3920    -1.4350 h4         1 ZEB       0.202000
     23 H1          -1.1940     1.4660     0.5720 h2         1 ZEB       0.078700
     24 H2          -0.5790    -1.5460     1.0210 h1         1 ZEB       0.077700
     25 HO2         -2.9810    -0.2320     1.6710 ho         1 ZEB       0.511000
     26 H3          -0.9540    -1.0100     3.4050 h1         1 ZEB       0.049700
     27 HO3         -1.7270     1.0660     4.0250 ho         1 ZEB       0.505000
     28 H7           0.6990     1.2450     3.3030 h1         1 ZEB       0.074700
     29 H5'1         1.6600    -1.3990     2.0780 h1         1 ZEB       0.030200
     30 H5'2         1.4020    -1.1790     3.8140 h1         1 ZEB       0.030200
     31 HO5          3.6160    -0.7760     3.0640 ho         1 ZEB       0.504000
@<TRIPOS>BOND
     1     1     2 1   
     2     1     8 1   
     3     1     9 1   
     4     2     3 2   
     5     2     4 1   
     6     4     5 1   
     7     4    18 1   
     8     5     6 1   
     9     5     7 1   
    10     5    19 1   
    11     6    20 1   
    12     7     8 2   
    13     7    21 1   
    14     8    22 1   
    15     9    10 1   
    16     9    15 1   
    17     9    23 1   
    18    10    11 1   
    19    10    12 1   
    20    10    24 1   
    21    11    25 1   
    22    12    13 1   
    23    12    14 1   
    24    12    26 1   
    25    13    27 1   
    26    14    15 1   
    27    14    16 1   
    28    14    28 1   
    29    16    17 1   
    30    16    29 1   
    31    16    30 1   
    32    17    31 1   
@<TRIPOS>SUBSTRUCTURE
     1 ZEB         1 TEMP              0 ****  ****    0 ROOT
