@<TRIPOS>MOLECULE
ZEC
   20    21     1     0     0
SMALL
abcg2


@<TRIPOS>ATOM
      1 O1           4.8850    -0.5790     0.4650 oh         1 ZEC      -0.526100
      2 C2           3.6680    -0.1040     0.1580 ca         1 ZEC       0.169100
      3 C7           2.5740    -0.9010     0.4650 ca         1 ZEC      -0.132000
      4 C6           1.3150    -0.4080     0.1530 ca         1 ZEC      -0.135000
      5 S8          -0.2230    -1.1630     0.4000 ss         1 ZEC       0.153800
      6 C9          -0.9530     0.2460    -0.3020 cc         1 ZEC       0.172600
      7 S11         -2.7230     0.3430    -0.4150 sy         1 ZEC       1.136400
      8 N14         -3.1350     1.1890     0.9140 n8         1 ZEC      -1.062100
      9 O13         -3.0250     1.1130    -1.6020 o          1 ZEC      -0.530000
     10 O12         -3.1770    -1.0260    -0.2520 o          1 ZEC      -0.530000
     11 N10         -0.1800     1.1830    -0.6950 nd         1 ZEC      -0.409100
     12 C5           1.1280     0.8470    -0.4530 ca         1 ZEC       0.026400
     13 C4           2.2440     1.6290    -0.7570 ca         1 ZEC       0.008000
     14 C3           3.4980     1.1530    -0.4510 ca         1 ZEC      -0.211000
     15 HO1          5.5700     0.0570     0.2290 ho         1 ZEC       0.471000
     16 H7           2.7090    -1.8670     0.9340 ha         1 ZEC       0.143000
     17 H141        -3.4460     2.1380     0.7500 hn         1 ZEC       0.500500
     18 H142        -3.6830     0.6830     1.5980 hn         1 ZEC       0.500500
     19 H4           2.1190     2.5960    -1.2250 ha         1 ZEC       0.136000
     20 H3           4.3690     1.7560    -0.6820 ha         1 ZEC       0.120000
@<TRIPOS>BOND
     1     1     2 1   
     2     1    15 1   
     3     2     3 ar  
     4     2    14 ar  
     5     3     4 ar  
     6     3    16 1   
     7     4     5 1   
     8     4    12 ar  
     9     5     6 1   
    10     6     7 1   
    11     6    11 2   
    12     7     8 1   
    13     7     9 2   
    14     7    10 2   
    15     8    17 1   
    16     8    18 1   
    17    11    12 1   
    18    12    13 ar  
    19    13    14 ar  
    20    13    19 1   
    21    14    20 1   
@<TRIPOS>SUBSTRUCTURE
     1 ZEC         1 TEMP              0 ****  ****    0 ROOT
