@<TRIPOS>MOLECULE
ZEC
   20    21     1     0     0
SMALL
No Charge or Current Charge


@<TRIPOS>ATOM
      1 O1           4.9960    -0.6160     0.4390 oh         1 ZEC      -0.526100
      2 C2           3.7570    -0.1300     0.1510 ca         1 ZEC       0.169100
      3 C7           2.6170    -0.8830     0.4830 ca         1 ZEC      -0.132000
      4 C6           1.3500    -0.3610     0.1760 ca         1 ZEC      -0.135000
      5 S8          -0.1900    -1.1390     0.5060 ss         1 ZEC       0.153800
      6 C9          -0.9280     0.2960    -0.2390 cc         1 ZEC       0.172600
      7 S11         -2.7480     0.3660    -0.3420 sy         1 ZEC       1.136400
      8 N14         -3.2300     1.1460     1.0230 n8         1 ZEC      -1.062100
      9 O13         -3.1820     1.2750    -1.4050 o          1 ZEC      -0.530000
     10 O12         -3.3280    -0.9690    -0.1840 o          1 ZEC      -0.530000
     11 N10         -0.1070     1.2690    -0.6910 nd         1 ZEC      -0.409100
     12 C5           1.1980     0.8650    -0.4400 ca         1 ZEC       0.026400
     13 C4           2.3330     1.6250    -0.7760 ca         1 ZEC       0.008000
     14 C3           3.6170     1.1230    -0.4780 ca         1 ZEC      -0.211000
     15 HO1          5.6620     0.0390     0.1380 ho         1 ZEC       0.471000
     16 H7           2.7190    -1.8500     0.9690 ha         1 ZEC       0.143000
     17 H141        -3.6900     1.9560     0.6090 hn         1 ZEC       0.500500
     18 H142        -4.0260     0.5700     1.2920 hn         1 ZEC       0.500500
     19 H4           2.2180     2.5920    -1.2620 ha         1 ZEC       0.136000
     20 H3           4.4940     1.7110    -0.7380 ha         1 ZEC       0.120000
@<TRIPOS>BOND
     1     1     2 1   
     2     1    15 1   
     3     2     3 ar  
     4     2    14 ar  
     5     3     4 ar  
     6     3    16 1   
     7     4     5 1   
     8     4    12 ar  
     9     5     6 1   
    10     6     7 1   
    11     6    11 2   
    12     7     8 1   
    13     7     9 2   
    14     7    10 2   
    15     8    17 1   
    16     8    18 1   
    17    11    12 1   
    18    12    13 ar  
    19    13    14 ar  
    20    13    19 1   
    21    14    20 1   
@<TRIPOS>SUBSTRUCTURE
     1 ZEC         1 TEMP              0 ****  ****    0 ROOT
