@<TRIPOS>MOLECULE
ZED
   39    40     1     0     0
SMALL
No Charge or Current Charge


@<TRIPOS>ATOM
      1 CZ1         -4.6440    -0.7660     0.4590 ca         1 ZED      -0.111000
      2 CZ2         -3.6130    -1.2490    -0.3650 ca         1 ZED      -0.069000
      3 CZ3         -3.7360    -1.1620    -1.7640 ca         1 ZED      -0.111000
      4 CZ4         -4.8810    -0.5800    -2.3350 ca         1 ZED      -0.102500
      5 CZ5         -5.9070    -0.0890    -1.5090 ca         1 ZED      -0.130000
      6 CZ6         -5.7890    -0.1830    -0.1120 ca         1 ZED      -0.102500
      7 CZ7         -0.0160     1.4810     0.2120 c5         1 ZED      -0.031300
      8 CZ8          0.1140     2.6410     1.2600 c          1 ZED       0.728000
      9 CZ9         -1.3270     0.6850     0.4810 c5         1 ZED      -0.073400
     10 CZA         -1.0200    -0.6490    -0.2440 c5         1 ZED       0.040300
     11 CZB          0.4190    -0.9560     0.2430 c5         1 ZED       0.127000
     12 CZC          4.4940    -0.1410     1.5410 c3         1 ZED      -0.082100
     13 CZD          3.3980    -0.5060     0.5060 c3         1 ZED      -0.133700
     14 CZF          3.9870    -0.9160    -0.8620 c3         1 ZED       0.114600
     15 OZ1         -0.0440     3.7940     0.8810 o          1 ZED      -0.717000
     16 OZ2          0.3820     2.3780     2.4270 o          1 ZED      -0.717000
     17 OZ3          2.8170     1.7980     0.0940 o          1 ZED      -0.601100
     18 NZ1          1.0140     0.3990     0.2900 n          1 ZED      -0.383800
     19 SZ1         -2.1610    -1.9850     0.3790 ss         1 ZED      -0.185000
     20 SZ2          5.0000    -2.4700    -0.8110 sh         1 ZED      -0.499800
     21 HZ1         -4.5550    -0.8370     1.5410 ha         1 ZED       0.121500
     22 HZ3         -2.9500    -1.5470    -2.4090 ha         1 ZED       0.121500
     23 HZ4         -4.9750    -0.5110    -3.4170 ha         1 ZED       0.105000
     24 HZ5         -6.7930     0.3620    -1.9510 ha         1 ZED       0.104000
     25 HZ6         -6.5840     0.1940     0.5280 ha         1 ZED       0.105000
     26 HZ7         -0.0220     1.9200    -0.7940 h1         1 ZED       0.053700
     27 HZ91        -2.2140     1.1940     0.0870 hc         1 ZED       0.062200
     28 HZ92        -1.4890     0.5230     1.5540 hc         1 ZED       0.062200
     29 H100        -1.0640    -0.5480    -1.3360 h1         1 ZED       0.064700
     30 H111         0.9430    -1.6250    -0.4510 h1         1 ZED       0.044700
     31 H112         0.4240    -1.4090     1.2440 h1         1 ZED       0.044700
     32 H123         5.1400    -1.0020     1.7520 hc         1 ZED       0.047033
     33 H133         2.8590    -1.3800     0.8850 hc         1 ZED       0.053700
     34 H151         3.1670    -1.0740    -1.5760 h1         1 ZED       0.069200
     35 H152         4.6140    -0.1010    -1.2520 h1         1 ZED       0.069200
     36 HSZ2         5.3170    -2.4840    -2.1300 hs         1 ZED       0.200800
     37 CZE          2.4040     0.6610     0.2910 c          1 ZED       0.616100
     38 H121         5.1250     0.6790     1.1770 hc         1 ZED       0.047033
     39 H122         4.0370     0.1730     2.4870 hc         1 ZED       0.047033
@<TRIPOS>BOND
     1     1     2 ar  
     2     1     6 ar  
     3     1    21 1   
     4     2     3 ar  
     5     2    19 1   
     6     3     4 ar  
     7     3    22 1   
     8     4     5 ar  
     9     4    23 1   
    10     5     6 ar  
    11     5    24 1   
    12     6    25 1   
    13     7     8 1   
    14     7     9 1   
    15     7    18 1   
    16     7    26 1   
    17     8    15 1   
    18     8    16 1   
    19     9    10 1   
    20     9    27 1   
    21     9    28 1   
    22    10    11 1   
    23    10    19 1   
    24    10    29 1   
    25    11    18 1   
    26    11    30 1   
    27    11    31 1   
    28    12    13 1   
    29    12    32 1   
    30    12    38 1   
    31    12    39 1   
    32    13    14 1   
    33    13    33 1   
    34    13    37 1   
    35    14    20 1   
    36    14    34 1   
    37    14    35 1   
    38    17    37 2   
    39    18    37 1   
    40    20    36 1   
@<TRIPOS>SUBSTRUCTURE
     1 ZED         1 TEMP              0 ****  ****    0 ROOT
