@<TRIPOS>MOLECULE
ZED
   39    40     1     0     0
SMALL
abcg2


@<TRIPOS>ATOM
      1 CZ1         -4.9330    -1.4250     0.6470 ca         1 ZED      -0.111000
      2 CZ2         -3.7850    -0.9470     0.0110 ca         1 ZED      -0.069000
      3 CZ3         -3.9070    -0.2980    -1.2150 ca         1 ZED      -0.111000
      4 CZ4         -5.1610    -0.1290    -1.7900 ca         1 ZED      -0.102500
      5 CZ5         -6.3010    -0.6060    -1.1590 ca         1 ZED      -0.130000
      6 CZ6         -6.1780    -1.2560     0.0630 ca         1 ZED      -0.102500
      7 CZ7          0.3620     1.6310    -0.3030 c5         1 ZED      -0.031300
      8 CZ8          0.8280     2.7910     0.6050 c          1 ZED       0.728000
      9 CZ9         -1.0550     1.1920     0.0970 c5         1 ZED      -0.073400
     10 CZA         -1.0360    -0.3160    -0.1060 c5         1 ZED       0.040300
     11 CZB          0.3650    -0.6960     0.3660 c5         1 ZED       0.127000
     12 CZC          3.6700    -0.5390     1.5920 c3         1 ZED      -0.082100
     13 CZD          3.2930    -0.7490     0.1220 c3         1 ZED      -0.133700
     14 CZF          4.5120    -0.9040    -0.7820 c3         1 ZED       0.114600
     15 OZ1          0.5410     3.9330     0.1970 o          1 ZED      -0.717000
     16 OZ2          1.3710     2.4810     1.6780 o          1 ZED      -0.717000
     17 OZ3          3.0200     1.4360    -0.8200 o          1 ZED      -0.601100
     18 NZ1          1.1500     0.4170    -0.1290 n          1 ZED      -0.383800
     19 SZ1         -2.2580    -1.2520     0.8390 ss         1 ZED      -0.185000
     20 SZ2          5.3990    -2.4380    -0.3400 sh         1 ZED      -0.499800
     21 HZ1         -4.8550    -1.9310     1.6020 ha         1 ZED       0.121500
     22 HZ3         -3.0410     0.0850    -1.7370 ha         1 ZED       0.121500
     23 HZ4         -5.2390     0.3820    -2.7400 ha         1 ZED       0.105000
     24 HZ5         -7.2740    -0.4710    -1.6120 ha         1 ZED       0.104000
     25 HZ6         -7.0570    -1.6320     0.5700 ha         1 ZED       0.105000
     26 HZ7          0.3840     1.9420    -1.3510 h1         1 ZED       0.053700
     27 HZ91        -1.8240     1.7000    -0.4810 hc         1 ZED       0.062200
     28 HZ92        -1.2380     1.4000     1.1540 hc         1 ZED       0.062200
     29 H100        -1.1250    -0.5770    -1.1630 h1         1 ZED       0.064700
     30 H111         0.6830    -1.6490    -0.0520 h1         1 ZED       0.044700
     31 H112         0.4080    -0.7690     1.4600 h1         1 ZED       0.044700
     32 H123         4.1890    -1.4080     1.9950 hc         1 ZED       0.047033
     33 H133         2.6970    -1.6610     0.0420 hc         1 ZED       0.053700
     34 H151         4.2020    -0.9730    -1.8250 h1         1 ZED       0.069200
     35 H152         5.1820    -0.0530    -0.6770 h1         1 ZED       0.069200
     36 HSZ2         6.2910    -2.4100    -1.3350 hs         1 ZED       0.200800
     37 CZE          2.4770     0.4530    -0.3280 c          1 ZED       0.616100
     38 H121         4.3260     0.3260     1.6990 hc         1 ZED       0.047033
     39 H122         2.7870    -0.3670     2.2060 hc         1 ZED       0.047033
@<TRIPOS>BOND
     1     1     2 ar  
     2     1     6 ar  
     3     1    21 1   
     4     2     3 ar  
     5     2    19 1   
     6     3     4 ar  
     7     3    22 1   
     8     4     5 ar  
     9     4    23 1   
    10     5     6 ar  
    11     5    24 1   
    12     6    25 1   
    13     7     8 1   
    14     7     9 1   
    15     7    18 1   
    16     7    26 1   
    17     8    15 1   
    18     8    16 1   
    19     9    10 1   
    20     9    27 1   
    21     9    28 1   
    22    10    11 1   
    23    10    19 1   
    24    10    29 1   
    25    11    18 1   
    26    11    30 1   
    27    11    31 1   
    28    12    13 1   
    29    12    32 1   
    30    12    38 1   
    31    12    39 1   
    32    13    14 1   
    33    13    33 1   
    34    13    37 1   
    35    14    20 1   
    36    14    34 1   
    37    14    35 1   
    38    17    37 2   
    39    18    37 1   
    40    20    36 1   
@<TRIPOS>SUBSTRUCTURE
     1 ZED         1 TEMP              0 ****  ****    0 ROOT
