@<TRIPOS>MOLECULE
ZEE
   24    24     1     0     0
SMALL
No Charge or Current Charge


@<TRIPOS>ATOM
      1 O6          15.3580    -8.1250    -6.6980 oh         1 ZEE      -0.715000
      2 C6          15.2550    -9.3880    -7.3920 c3         1 ZEE       0.174600
      3 C5          15.2610   -10.6240    -6.4320 c6         1 ZEE       0.183300
      4 O5          16.4910   -10.6180    -5.6650 os         1 ZEE      -0.400000
      5 C1          16.4900   -11.5980    -4.6180 c6         1 ZEE       0.414300
      6 O1          17.7160   -11.4450    -3.9240 oh         1 ZEE      -0.680000
      7 C2          16.4250   -13.0470    -5.2100 c6         1 ZEE       0.114300
      8 O2          17.6420   -13.3950    -5.9050 oh         1 ZEE      -0.676000
      9 C3          15.2100   -13.1800    -6.1890 c6         1 ZEE       0.091300
     10 O3          15.3190   -14.4170    -6.9340 oh         1 ZEE      -0.728000
     11 C4          15.0830   -11.9820    -7.1890 c6         1 ZEE       0.117300
     12 O4          16.0370   -12.1690    -8.2470 oh         1 ZEE      -0.691000
     13 HO1         18.3310   -11.9460    -4.5090 ho         1 ZEE       0.517000
     14 HO6         15.4250    -7.4240    -7.3880 ho         1 ZEE       0.506000
     15 H61         14.3270    -9.4200    -7.9780 h1         1 ZEE       0.039700
     16 H62         16.0890    -9.4960    -8.0990 h1         1 ZEE       0.039700
     17 H5          14.4190   -10.5010    -5.7350 h1         1 ZEE       0.041700
     18 H1          15.6440   -11.4170    -3.9390 h2         1 ZEE       0.009700
     19 H2          16.2670   -13.7500    -4.3780 h1         1 ZEE       0.031700
     20 HO2         17.3470   -14.0790    -6.5530 ho         1 ZEE       0.511000
     21 H3          14.2950   -13.1900    -5.5780 h1         1 ZEE       0.040700
     22 HO3         14.6680   -15.0530    -6.5470 ho         1 ZEE       0.514000
     23 H4          14.0680   -12.0030    -7.6140 h1         1 ZEE       0.028700
     24 HO4         16.0770   -13.1540    -8.3260 ho         1 ZEE       0.513000
@<TRIPOS>BOND
     1     1     2 1   
     2     1    14 1   
     3     2     3 1   
     4     2    15 1   
     5     2    16 1   
     6     3     4 1   
     7     3    11 1   
     8     3    17 1   
     9     4     5 1   
    10     5     6 1   
    11     5     7 1   
    12     5    18 1   
    13     6    13 1   
    14     7     8 1   
    15     7     9 1   
    16     7    19 1   
    17     8    20 1   
    18     9    10 1   
    19     9    11 1   
    20     9    21 1   
    21    10    22 1   
    22    11    12 1   
    23    11    23 1   
    24    12    24 1   
@<TRIPOS>SUBSTRUCTURE
     1 ZEE         1 TEMP              0 ****  ****    0 ROOT
