@<TRIPOS>MOLECULE
ZEE
   24    24     1     0     0
SMALL
bcc


@<TRIPOS>ATOM
      1 O6          15.2290    -8.3100    -6.6320 oh         1 ZEE      -0.592800
      2 C6          15.2390    -9.4970    -7.3900 c3         1 ZEE       0.151400
      3 C5          15.2960   -10.6750    -6.4410 c6         1 ZEE       0.160100
      4 O5          16.5450   -10.6580    -5.7830 os         1 ZEE      -0.353600
      5 C1          16.6380   -11.6190    -4.7780 c6         1 ZEE       0.367900
      6 O1          17.8500   -11.3500    -4.1580 oh         1 ZEE      -0.557800
      7 C2          16.5550   -13.0300    -5.3580 c6         1 ZEE       0.091100
      8 O2          17.6950   -13.2680    -6.1370 oh         1 ZEE      -0.553800
      9 C3          15.2460   -13.1440    -6.1390 c6         1 ZEE       0.068100
     10 O3          15.2410   -14.4020    -6.7780 oh         1 ZEE      -0.605800
     11 C4          15.0580   -12.0050    -7.1470 c6         1 ZEE       0.094100
     12 O4          15.9160   -12.1140    -8.2520 oh         1 ZEE      -0.568800
     13 HO1         17.9880   -11.9870    -3.4490 ho         1 ZEE       0.418000
     14 HO6         15.2270    -7.5670    -7.2420 ho         1 ZEE       0.407000
     15 H61         14.3310    -9.5980    -7.9990 h1         1 ZEE       0.039700
     16 H62         16.0940    -9.5340    -8.0750 h1         1 ZEE       0.039700
     17 H5          14.4830   -10.5590    -5.7050 h1         1 ZEE       0.041700
     18 H1          15.7940   -11.5050    -4.0710 h2         1 ZEE       0.009700
     19 H2          16.5000   -13.7360    -4.5120 h1         1 ZEE       0.031700
     20 HO2         17.5920   -14.1240    -6.5640 ho         1 ZEE       0.412000
     21 H3          14.4280   -13.0670    -5.4100 h1         1 ZEE       0.040700
     22 HO3         14.3430   -14.6130    -7.0530 ho         1 ZEE       0.415000
     23 H4          14.0040   -12.0150    -7.4700 h1         1 ZEE       0.028700
     24 HO4         15.9540   -13.0440    -8.5030 ho         1 ZEE       0.414000
@<TRIPOS>BOND
     1     1     2 1   
     2     1    14 1   
     3     2     3 1   
     4     2    15 1   
     5     2    16 1   
     6     3     4 1   
     7     3    11 1   
     8     3    17 1   
     9     4     5 1   
    10     5     6 1   
    11     5     7 1   
    12     5    18 1   
    13     6    13 1   
    14     7     8 1   
    15     7     9 1   
    16     7    19 1   
    17     8    20 1   
    18     9    10 1   
    19     9    11 1   
    20     9    21 1   
    21    10    22 1   
    22    11    12 1   
    23    11    23 1   
    24    12    24 1   
@<TRIPOS>SUBSTRUCTURE
     1 ZEE         1 TEMP              0 ****  ****    0 ROOT
