@<TRIPOS>MOLECULE
ZEG
   44    47     1     0     0
SMALL
bcc


@<TRIPOS>ATOM
      1 C05         49.1510    -6.4740   162.4640 c6         1 ZEG       0.131400
      2 C04         49.9450    -5.1990   162.6800 c6         1 ZEG       0.151300
      3 C07         47.1350    -5.3710   162.7870 c6         1 ZEG       0.131400
      4 C16         51.5650     0.4380   169.2980 cc         1 ZEG       0.497900
      5 C17         51.0050     1.4050   170.2400 ca         1 ZEG      -0.156500
      6 C08         47.8360    -4.0430   163.0140 c6         1 ZEG       0.151300
      7 C13         51.7540    -0.8050   167.4810 cd         1 ZEG       0.400800
      8 C12         51.2960    -1.2610   166.1640 ca         1 ZEG      -0.059500
      9 C11         52.1160    -2.0380   165.3430 ca         1 ZEG      -0.129500
     10 C10         51.6900    -2.4460   164.0930 ca         1 ZEG      -0.038000
     11 C09         50.4270    -2.0740   163.6470 ca         1 ZEG      -0.304500
     12 O01         51.0490    -2.8900   161.2450 o          1 ZEG      -0.603800
     13 N03         49.1080    -4.0630   162.2890 n3         1 ZEG      -0.713500
     14 O06         47.9370    -6.4590   163.1760 os         1 ZEG      -0.396600
     15 C14         52.8930    -1.2080   168.1200 cc         1 ZEG      -0.198400
     16 S15         53.0450    -0.4060   169.6150 ss         1 ZEG      -0.140300
     17 C18         49.6630     1.7750   170.1350 ca         1 ZEG      -0.072000
     18 C19         49.1120     2.6980   171.0070 ca         1 ZEG      -0.174500
     19 C20         49.9170     3.2490   171.9870 ca         1 ZEG       0.152900
     20 F21         49.3930     4.1460   172.8320 f          1 ZEG      -0.137900
     21 C22         51.2480     2.9060   172.1210 ca         1 ZEG      -0.174500
     22 C23         51.7870     1.9830   171.2400 ca         1 ZEG      -0.072000
     23 N24         51.0190     0.1180   168.1680 nd         1 ZEG      -0.642000
     24 C25         50.0300    -0.9030   165.6990 ca         1 ZEG      -0.129500
     25 C26         49.5930    -1.3040   164.4480 ca         1 ZEG      -0.038000
     26 O27         48.8740    -1.6760   161.5780 o          1 ZEG      -0.603800
     27 H1          48.9690    -6.6090   161.3890 h1         1 ZEG       0.057700
     28 H2          49.7320    -7.3250   162.8200 h1         1 ZEG       0.057700
     29 H3          50.2520    -5.1210   163.7310 h1         1 ZEG       0.063950
     30 H4          50.8400    -5.2350   162.0630 h1         1 ZEG       0.063950
     31 H5          46.8520    -5.4540   161.7290 h1         1 ZEG       0.057700
     32 H6          46.2240    -5.4010   163.3850 h1         1 ZEG       0.057700
     33 H7          47.9970    -3.8830   164.0880 h1         1 ZEG       0.063950
     34 H8          47.2020    -3.2430   162.6370 h1         1 ZEG       0.063950
     35 H9          53.1110    -2.3200   165.6630 ha         1 ZEG       0.146000
     36 H10         52.3500    -3.0340   163.4720 ha         1 ZEG       0.152500
     37 H11         53.6340    -1.9240   167.8020 h4         1 ZEG       0.183000
     38 H12         49.0420     1.3330   169.3680 ha         1 ZEG       0.147000
     39 H13         48.0700     2.9800   170.9280 ha         1 ZEG       0.155000
     40 H14         51.8590     3.3560   172.8920 ha         1 ZEG       0.155000
     41 H15         52.8360     1.7330   171.3380 ha         1 ZEG       0.147000
     42 H16         49.3810    -0.2980   166.3170 ha         1 ZEG       0.146000
     43 H17         48.6120    -1.0040   164.1050 ha         1 ZEG       0.152500
     44 S02         49.8740    -2.6150   162.0550 sy         1 ZEG       1.295200
@<TRIPOS>BOND
     1     1     2 1   
     2     1    14 1   
     3     1    27 1   
     4     1    28 1   
     5     2    13 1   
     6     2    29 1   
     7     2    30 1   
     8     3     6 1   
     9     3    14 1   
    10     3    31 1   
    11     3    32 1   
    12     4     5 1   
    13     4    16 1   
    14     4    23 2   
    15     5    17 ar  
    16     5    22 ar  
    17     6    13 1   
    18     6    33 1   
    19     6    34 1   
    20     7     8 1   
    21     7    15 2   
    22     7    23 1   
    23     8     9 ar  
    24     8    24 ar  
    25     9    10 ar  
    26     9    35 1   
    27    10    11 ar  
    28    10    36 1   
    29    11    25 ar  
    30    11    44 1   
    31    12    44 2   
    32    13    44 1   
    33    15    16 1   
    34    15    37 1   
    35    17    18 ar  
    36    17    38 1   
    37    18    19 ar  
    38    18    39 1   
    39    19    20 1   
    40    19    21 ar  
    41    21    22 ar  
    42    21    40 1   
    43    22    41 1   
    44    24    25 ar  
    45    24    42 1   
    46    25    43 1   
    47    26    44 2   
@<TRIPOS>SUBSTRUCTURE
     1 ZEG         1 TEMP              0 ****  ****    0 ROOT
