@<TRIPOS>MOLECULE
ZEG
   44    47     1     0     0
SMALL
No Charge or Current Charge


@<TRIPOS>ATOM
      1 C05         49.1440    -6.5070   162.8990 c6         1 ZEG       0.154600
      2 C04         49.9490    -5.1880   162.7210 c6         1 ZEG       0.151300
      3 C07         47.0980    -5.2660   163.1740 c6         1 ZEG       0.154600
      4 C16         51.6000     0.4550   169.2110 cc         1 ZEG       0.497900
      5 C17         50.9770     1.3350   170.2210 ca         1 ZEG      -0.156500
      6 C08         47.8620    -3.9220   163.0020 c6         1 ZEG       0.151300
      7 C13         51.8060    -0.6840   167.3000 cd         1 ZEG       0.335500
      8 C12         51.3540    -1.1580   165.9670 ca         1 ZEG      -0.059500
      9 C11         52.1630    -2.0140   165.1840 ca         1 ZEG      -0.111500
     10 C10         51.7330    -2.4620   163.9230 ca         1 ZEG      -0.020000
     11 C09         50.4790    -2.0650   163.4200 ca         1 ZEG      -0.304500
     12 O01         51.0810    -3.0340   160.9910 o          1 ZEG      -0.533000
     13 N03         49.0950    -4.0900   162.1740 n3         1 ZEG      -0.713500
     14 O06         47.9770    -6.2750   163.7240 os         1 ZEG      -0.443000
     15 C14         53.0060    -1.0140   167.8910 cc         1 ZEG      -0.260000
     16 S15         53.1750    -0.2660   169.4500 ss         1 ZEG       0.004600
     17 C18         49.6980     1.8990   169.9880 ca         1 ZEG      -0.054000
     18 C19         49.0980     2.7370   170.9430 ca         1 ZEG      -0.156500
     19 C20         49.7640     3.0230   172.1420 ca         1 ZEG       0.188000
     20 F21         49.1850     3.8280   173.0590 f          1 ZEG      -0.173000
     21 C22         51.0280     2.4750   172.3920 ca         1 ZEG      -0.156500
     22 C23         51.6340     1.6360   171.4400 ca         1 ZEG      -0.054000
     23 N24         51.0050     0.1570   168.0610 nd         1 ZEG      -0.642000
     24 C25         50.1000    -0.7620   165.4460 ca         1 ZEG      -0.111500
     25 C26         49.6660    -1.2070   164.1860 ca         1 ZEG      -0.020000
     26 O27         48.9120    -1.7230   161.2680 o          1 ZEG      -0.533000
     27 H1          48.8250    -6.8860   161.9170 h1         1 ZEG       0.057700
     28 H2          49.7750    -7.2710   163.3730 h1         1 ZEG       0.057700
     29 H3          50.3680    -4.9040   163.6980 h1         1 ZEG       0.063950
     30 H4          50.7990    -5.3930   162.0540 h1         1 ZEG       0.063950
     31 H5          46.7170    -5.6070   162.2000 h1         1 ZEG       0.057700
     32 H6          46.2420    -5.1280   163.8480 h1         1 ZEG       0.057700
     33 H7          48.1150    -3.5380   164.0020 h1         1 ZEG       0.063950
     34 H8          47.1770    -3.1950   162.5410 h1         1 ZEG       0.063950
     35 H9          53.1340    -2.3430   165.5420 ha         1 ZEG       0.128000
     36 H10         52.3780    -3.1200   163.3440 ha         1 ZEG       0.134500
     37 H11         53.8030    -1.6430   167.5210 h4         1 ZEG       0.165000
     38 H12         49.1610     1.6920   169.0640 ha         1 ZEG       0.129000
     39 H13         48.1160     3.1650   170.7550 ha         1 ZEG       0.137000
     40 H14         51.5390     2.7010   173.3240 ha         1 ZEG       0.137000
     41 H15         52.6170     1.2270   171.6660 ha         1 ZEG       0.129000
     42 H16         49.4490    -0.1030   166.0150 ha         1 ZEG       0.128000
     43 H17         48.6960    -0.8840   163.8120 ha         1 ZEG       0.134500
     44 S02         49.9230    -2.6430   161.8030 sy         1 ZEG       1.153600
@<TRIPOS>BOND
     1     1     2 1   
     2     1    14 1   
     3     1    27 1   
     4     1    28 1   
     5     2    13 1   
     6     2    29 1   
     7     2    30 1   
     8     3     6 1   
     9     3    14 1   
    10     3    31 1   
    11     3    32 1   
    12     4     5 1   
    13     4    16 1   
    14     4    23 2   
    15     5    17 ar  
    16     5    22 ar  
    17     6    13 1   
    18     6    33 1   
    19     6    34 1   
    20     7     8 1   
    21     7    15 2   
    22     7    23 1   
    23     8     9 ar  
    24     8    24 ar  
    25     9    10 ar  
    26     9    35 1   
    27    10    11 ar  
    28    10    36 1   
    29    11    25 ar  
    30    11    44 1   
    31    12    44 2   
    32    13    44 1   
    33    15    16 1   
    34    15    37 1   
    35    17    18 ar  
    36    17    38 1   
    37    18    19 ar  
    38    18    39 1   
    39    19    20 1   
    40    19    21 ar  
    41    21    22 ar  
    42    21    40 1   
    43    22    41 1   
    44    24    25 ar  
    45    24    42 1   
    46    25    43 1   
    47    26    44 2   
@<TRIPOS>SUBSTRUCTURE
     1 ZEG         1 TEMP              0 ****  ****    0 ROOT
