@<TRIPOS>MOLECULE
ZEI
   34    35     1     0     0
SMALL
abcg2


@<TRIPOS>ATOM
      1 C11        104.5360    81.0300    86.9540 ce         1 ZEI      -0.298200
      2 C12        103.5780    81.4610    86.1250 cf         1 ZEI      -0.070200
      3 C13        103.3450    81.0390    84.7490 ca         1 ZEI      -0.076800
      4 C18        103.9080    79.7570    82.7670 ca         1 ZEI      -0.107000
      5 C19        104.1730    80.1300    84.0740 ca         1 ZEI      -0.077500
      6 C20        107.1390    80.4540    90.8300 ca         1 ZEI      -0.208000
      7 C1         109.2180    79.9530    93.7810 c3         1 ZEI       0.150900
      8 C14        102.2410    81.5630    84.0640 ca         1 ZEI      -0.077500
      9 C15        101.9610    81.1970    82.7550 ca         1 ZEI      -0.107000
     10 C16        102.8000    80.2940    82.1180 ca         1 ZEI       0.135000
     11 C3         107.6350    80.6320    92.1200 ca         1 ZEI       0.164100
     12 C4         107.0860    81.6090    92.9510 ca         1 ZEI      -0.219000
     13 C5         106.0430    82.3910    92.4620 ca         1 ZEI      -0.050000
     14 C6         105.5360    82.2300    91.1810 ca         1 ZEI      -0.166000
     15 C7         106.0950    81.2470    90.3530 ca         1 ZEI       0.015000
     16 C9         104.6470    81.5610    88.3300 c          1 ZEI       0.610300
     17 N8         105.6750    81.0020    89.0380 ns         1 ZEI      -0.144000
     18 O10        103.8910    82.4180    88.7870 o          1 ZEI      -0.587100
     19 CL17       102.4650    79.8230    80.4690 cl         1 ZEI      -0.203000
     20 H1         105.2580    80.2820    86.6480 ha         1 ZEI       0.179000
     21 H2         102.8880    82.2070    86.5090 ha         1 ZEI       0.199000
     22 H3         104.5520    79.0570    82.2530 ha         1 ZEI       0.133000
     23 H4         105.0380    79.7090    84.5680 ha         1 ZEI       0.121000
     24 H5         107.5800    79.6920    90.2000 ha         1 ZEI       0.122000
     25 H6         110.0120    79.2140    93.8470 h1         1 ZEI       0.042367
     26 H7         109.6350    80.9530    93.9160 h1         1 ZEI       0.042367
     27 H8         108.4720    79.7610    94.5570 h1         1 ZEI       0.042367
     28 H9         101.5910    82.2680    84.5680 ha         1 ZEI       0.121000
     29 H10        101.1060    81.6080    82.2370 ha         1 ZEI       0.133000
     30 H11        107.4520    81.7650    93.9550 ha         1 ZEI       0.118000
     31 H12        105.6130    83.1490    93.1040 ha         1 ZEI       0.114000
     32 H13        104.7320    82.8490    90.8200 ha         1 ZEI       0.151000
     33 H14        106.2080    80.2960    88.5510 hn         1 ZEI       0.150000
     34 O2         108.6530    79.8040    92.4780 os         1 ZEI      -0.353100
@<TRIPOS>BOND
     1     1     2 2   
     2     1    16 1   
     3     1    20 1   
     4     2     3 1   
     5     2    21 1   
     6     3     5 ar  
     7     3     8 ar  
     8     4     5 ar  
     9     4    10 ar  
    10     4    22 1   
    11     5    23 1   
    12     6    11 ar  
    13     6    15 ar  
    14     6    24 1   
    15     7    25 1   
    16     7    26 1   
    17     7    27 1   
    18     7    34 1   
    19     8     9 ar  
    20     8    28 1   
    21     9    10 ar  
    22     9    29 1   
    23    10    19 1   
    24    11    12 ar  
    25    11    34 1   
    26    12    13 ar  
    27    12    30 1   
    28    13    14 ar  
    29    13    31 1   
    30    14    15 ar  
    31    14    32 1   
    32    15    17 1   
    33    16    17 1   
    34    16    18 2   
    35    17    33 1   
@<TRIPOS>SUBSTRUCTURE
     1 ZEI         1 TEMP              0 ****  ****    0 ROOT
