@<TRIPOS>MOLECULE
ZEI
   34    35     1     0     0
SMALL
No Charge or Current Charge


@<TRIPOS>ATOM
      1 C11        104.4440    81.1070    86.9710 ce         1 ZEI      -0.298200
      2 C12        103.5080    81.5140    86.0610 cf         1 ZEI      -0.070200
      3 C13        103.2890    81.0560    84.6730 ca         1 ZEI      -0.076800
      4 C18        103.8620    79.6460    82.7570 ca         1 ZEI      -0.107000
      5 C19        104.0960    80.0590    84.0810 ca         1 ZEI      -0.077500
      6 C20        107.1630    80.5030    90.8420 ca         1 ZEI      -0.208000
      7 C1         109.3730    79.9150    93.7850 c3         1 ZEI       0.150900
      8 C14        102.2470    81.6290    83.9140 ca         1 ZEI      -0.077500
      9 C15        102.0140    81.2140    82.5900 ca         1 ZEI      -0.107000
     10 C16        102.8220    80.2230    82.0130 ca         1 ZEI       0.135000
     11 C3         107.6880    80.6430    92.1360 ca         1 ZEI       0.164100
     12 C4         107.1120    81.5740    93.0230 ca         1 ZEI      -0.219000
     13 C5         106.0200    82.3530    92.6070 ca         1 ZEI      -0.050000
     14 C6         105.5000    82.2060    91.3100 ca         1 ZEI      -0.166000
     15 C7         106.0690    81.2770    90.4120 ca         1 ZEI       0.015000
     16 C9         104.5700    81.6460    88.3560 c          1 ZEI       0.610300
     17 N8         105.6010    81.0700    89.0860 ns         1 ZEI      -0.144000
     18 O10        103.8180    82.5160    88.7800 o          1 ZEI      -0.587100
     19 Cl17       102.5320    79.7040    80.3580 cl         1 ZEI      -0.203000
     20 H1         105.1630    80.3380    86.6990 ha         1 ZEI       0.179000
     21 H2         102.8090    82.2890    86.3850 ha         1 ZEI       0.199000
     22 H3         104.4870    78.8780    82.3090 ha         1 ZEI       0.133000
     23 H4         104.9080    79.5970    84.6360 ha         1 ZEI       0.121000
     24 H5         107.6150    79.7810    90.1660 ha         1 ZEI       0.122000
     25 H6         110.2050    79.2030    93.8500 h1         1 ZEI       0.042367
     26 H7         109.7690    80.9200    93.9800 h1         1 ZEI       0.042367
     27 H8         108.6490    79.6640    94.5700 h1         1 ZEI       0.042367
     28 H9         101.6110    82.3980    84.3470 ha         1 ZEI       0.121000
     29 H10        101.2090    81.6600    82.0130 ha         1 ZEI       0.133000
     30 H11        107.4940    81.7080    94.0310 ha         1 ZEI       0.118000
     31 H12        105.5740    83.0730    93.2910 ha         1 ZEI       0.114000
     32 H13        104.6560    82.8260    91.0240 ha         1 ZEI       0.151000
     33 H14        106.1210    80.3680    88.5780 hn         1 ZEI       0.150000
     34 O2         108.7610    79.8490    92.4840 os         1 ZEI      -0.353100
@<TRIPOS>BOND
     1     1     2 2   
     2     1    16 1   
     3     1    20 1   
     4     2     3 1   
     5     2    21 1   
     6     3     5 ar  
     7     3     8 ar  
     8     4     5 ar  
     9     4    10 ar  
    10     4    22 1   
    11     5    23 1   
    12     6    11 ar  
    13     6    15 ar  
    14     6    24 1   
    15     7    25 1   
    16     7    26 1   
    17     7    27 1   
    18     7    34 1   
    19     8     9 ar  
    20     8    28 1   
    21     9    10 ar  
    22     9    29 1   
    23    10    19 1   
    24    11    12 ar  
    25    11    34 1   
    26    12    13 ar  
    27    12    30 1   
    28    13    14 ar  
    29    13    31 1   
    30    14    15 ar  
    31    14    32 1   
    32    15    17 1   
    33    16    17 1   
    34    16    18 2   
    35    17    33 1   
@<TRIPOS>SUBSTRUCTURE
     1 ZEI         1 TEMP              0 ****  ****    0 ROOT
