@<TRIPOS>MOLECULE
ZEK
   26    26     1     0     0
SMALL
abcg2


@<TRIPOS>ATOM
      1 C13          1.3810   -23.1780    53.2750 c3         1 ZEK      -0.177100
      2 C15         -0.9650   -19.5540    51.8880 ca         1 ZEK      -0.082000
      3 C01         -3.0180   -15.1370    52.2430 c3         1 ZEK       0.097300
      4 N02         -2.8700   -16.4730    51.6930 ns         1 ZEK      -0.507900
      5 O04         -0.8200   -16.8050    52.5770 o          1 ZEK      -0.595100
      6 C05         -1.7500   -18.5780    51.2730 ca         1 ZEK      -0.118600
      7 C06         -2.4590   -18.8730    50.1100 ca         1 ZEK      -0.119000
      8 C07         -2.3840   -20.1530    49.5700 ca         1 ZEK      -0.090000
      9 C08         -1.6170   -21.1300    50.1820 ca         1 ZEK      -0.151000
     10 C09         -0.8980   -20.8380    51.3480 ca         1 ZEK      -0.026000
     11 N10         -0.1480   -21.8830    51.9130 ns         1 ZEK      -0.151000
     12 C11          0.7370   -21.8510    52.9510 c          1 ZEK       0.601100
     13 O12          1.0050   -20.8370    53.5870 o          1 ZEK      -0.573100
     14 H1           2.4630   -23.0670    53.1950 hc         1 ZEK       0.064367
     15 H2           1.1490   -23.4330    54.3100 hc         1 ZEK       0.064367
     16 H3           1.0550   -23.9890    52.6260 hc         1 ZEK       0.064367
     17 H4          -0.4160   -19.3110    52.7800 ha         1 ZEK       0.171000
     18 H5          -3.9550   -14.7200    51.8830 h1         1 ZEK       0.041700
     19 H6          -3.0330   -15.1590    53.3350 h1         1 ZEK       0.041700
     20 H7          -2.1950   -14.4980    51.9240 h1         1 ZEK       0.041700
     21 H8          -3.6570   -16.8810    51.2170 hn         1 ZEK       0.315500
     22 H9          -3.0440   -18.1150    49.6070 ha         1 ZEK       0.113000
     23 H10         -2.9230   -20.3890    48.6610 ha         1 ZEK       0.116000
     24 H11         -1.5630   -22.1260    49.7580 ha         1 ZEK       0.110000
     25 H12         -0.2580   -22.7760    51.4580 hn         1 ZEK       0.148000
     26 C03         -1.7690   -17.2160    51.9020 c          1 ZEK       0.601700
@<TRIPOS>BOND
     1     1    12 1   
     2     1    14 1   
     3     1    15 1   
     4     1    16 1   
     5     2     6 ar  
     6     2    10 ar  
     7     2    17 1   
     8     3     4 1   
     9     3    18 1   
    10     3    19 1   
    11     3    20 1   
    12     4    21 1   
    13     4    26 1   
    14     5    26 2   
    15     6     7 ar  
    16     6    26 1   
    17     7     8 ar  
    18     7    22 1   
    19     8     9 ar  
    20     8    23 1   
    21     9    10 ar  
    22     9    24 1   
    23    10    11 1   
    24    11    12 1   
    25    11    25 1   
    26    12    13 2   
@<TRIPOS>SUBSTRUCTURE
     1 ZEK         1 TEMP              0 ****  ****    0 ROOT
