@<TRIPOS>MOLECULE
ZEK
   26    26     1     0     0
SMALL
No Charge or Current Charge


@<TRIPOS>ATOM
      1 C13          1.5060   -23.2940    53.1960 c3         1 ZEK      -0.177100
      2 C15         -1.0040   -19.5780    52.0100 ca         1 ZEK      -0.082000
      3 C01         -3.0460   -14.9670    52.0620 c3         1 ZEK       0.097300
      4 N02         -2.8030   -16.3150    51.5430 ns         1 ZEK      -0.507900
      5 O04         -1.3660   -16.9720    53.1650 o          1 ZEK      -0.595100
      6 C05         -1.8460   -18.5880    51.4480 ca         1 ZEK      -0.118600
      7 C06         -2.5470   -18.8940    50.2560 ca         1 ZEK      -0.119000
      8 C07         -2.4060   -20.1510    49.6500 ca         1 ZEK      -0.090000
      9 C08         -1.5680   -21.1200    50.2200 ca         1 ZEK      -0.151000
     10 C09         -0.8600   -20.8470    51.4030 ca         1 ZEK      -0.026000
     11 N10         -0.0300   -21.8810    51.9200 ns         1 ZEK      -0.151000
     12 C11          0.7920   -21.9550    53.0370 c          1 ZEK       0.601100
     13 O12          0.9530   -21.0480    53.8440 o          1 ZEK      -0.573100
     14 H1           2.0690   -23.5090    52.2800 hc         1 ZEK       0.064367
     15 H2           2.1470   -23.3290    54.0830 hc         1 ZEK       0.064367
     16 H3           0.7600   -24.0970    53.2030 hc         1 ZEK       0.064367
     17 H4          -0.4680   -19.3420    52.9240 ha         1 ZEK       0.171000
     18 H5          -3.7460   -14.4400    51.4020 h1         1 ZEK       0.041700
     19 H6          -3.4760   -15.0310    53.0700 h1         1 ZEK       0.041700
     20 H7          -2.1000   -14.4110    52.1030 h1         1 ZEK       0.041700
     21 H8          -3.2740   -16.5980    50.6920 hn         1 ZEK       0.315500
     22 H9          -3.2050   -18.1690    49.7840 ha         1 ZEK       0.113000
     23 H10         -2.9490   -20.3760    48.7340 ha         1 ZEK       0.116000
     24 H11         -1.4710   -22.0910    49.7380 ha         1 ZEK       0.110000
     25 H12         -0.0420   -22.7260    51.3640 hn         1 ZEK       0.148000
     26 C03         -1.9700   -17.2400    52.1350 c          1 ZEK       0.601700
@<TRIPOS>BOND
     1     1    12 1   
     2     1    14 1   
     3     1    15 1   
     4     1    16 1   
     5     2     6 ar  
     6     2    10 ar  
     7     2    17 1   
     8     3     4 1   
     9     3    18 1   
    10     3    19 1   
    11     3    20 1   
    12     4    21 1   
    13     4    26 1   
    14     5    26 2   
    15     6     7 ar  
    16     6    26 1   
    17     7     8 ar  
    18     7    22 1   
    19     8     9 ar  
    20     8    23 1   
    21     9    10 ar  
    22     9    24 1   
    23    10    11 1   
    24    11    12 1   
    25    11    25 1   
    26    12    13 2   
@<TRIPOS>SUBSTRUCTURE
     1 ZEK         1 TEMP              0 ****  ****    0 ROOT
