@<TRIPOS>MOLECULE
ZEL
   27    27     1     0     0
SMALL
bcc


@<TRIPOS>ATOM
      1 C1          44.1340   -57.2540     6.0110 c6         1 ZEL       0.349900
      2 C1M         43.2630   -59.1070     4.8800 c3         1 ZEL       0.120700
      3 C2          43.7520   -55.8590     6.5320 c6         1 ZEL       0.144100
      4 C3          44.7670   -55.4450     7.6020 c6         1 ZEL       0.113100
      5 C4          46.1640   -55.9460     7.2600 c6         1 ZEL       0.081100
      6 C5          46.1280   -57.4920     7.2220 c6         1 ZEL       0.121100
      7 C6          46.6330   -58.0720     8.5250 c3         1 ZEL       0.147400
      8 O1          43.0060   -57.9470     5.6460 os         1 ZEL      -0.364600
      9 O2          42.4470   -55.8790     7.0550 oh         1 ZEL      -0.566800
     10 O3          44.6960   -54.0460     7.7380 oh         1 ZEL      -0.585800
     11 O4          46.5410   -55.3720     6.0300 oh         1 ZEL      -0.577800
     12 O5          44.8170   -57.9790     7.0060 os         1 ZEL      -0.415600
     13 O6          46.6100   -59.4750     8.4470 oh         1 ZEL      -0.577800
     14 H1          44.8060   -57.1240     5.1450 h2         1 ZEL       0.031700
     15 H1M1        42.3020   -59.4920     4.5420 h1         1 ZEL       0.035367
     16 H1M2        43.8760   -58.8800     4.0020 h1         1 ZEL       0.035367
     17 H1M3        43.7650   -59.8860     5.4590 h1         1 ZEL       0.035367
     18 H2          43.8210   -55.1580     5.6890 h1         1 ZEL       0.064700
     19 HO2         42.2340   -54.9840     7.3390 ho         1 ZEL       0.408000
     20 H3          44.4710   -55.9380     8.5390 h1         1 ZEL       0.058700
     21 HO3         45.0910   -53.7980     8.5800 ho         1 ZEL       0.405000
     22 H4          46.8570   -55.6300     8.0540 h1         1 ZEL       0.036700
     23 HO4         47.4410   -55.6450     5.8270 ho         1 ZEL       0.404000
     24 H5          46.7860   -57.8320     6.4060 h1         1 ZEL       0.049700
     25 H61         47.6500   -57.6910     8.6840 h1         1 ZEL       0.022200
     26 H62         46.0180   -57.6980     9.3550 h1         1 ZEL       0.022200
     27 HO6         46.9460   -59.8250     9.2770 ho         1 ZEL       0.405000
@<TRIPOS>BOND
     1     1     3 1   
     2     1     8 1   
     3     1    12 1   
     4     1    14 1   
     5     2     8 1   
     6     2    15 1   
     7     2    16 1   
     8     2    17 1   
     9     3     4 1   
    10     3     9 1   
    11     3    18 1   
    12     4     5 1   
    13     4    10 1   
    14     4    20 1   
    15     5     6 1   
    16     5    11 1   
    17     5    22 1   
    18     6     7 1   
    19     6    12 1   
    20     6    24 1   
    21     7    13 1   
    22     7    25 1   
    23     7    26 1   
    24     9    19 1   
    25    10    21 1   
    26    11    23 1   
    27    13    27 1   
@<TRIPOS>SUBSTRUCTURE
     1 ZEL         1 TEMP              0 ****  ****    0 ROOT
