@<TRIPOS>MOLECULE
ZEL
   27    27     1     0     0
SMALL
No Charge or Current Charge


@<TRIPOS>ATOM
      1 C1          44.0920   -57.2230     5.9750 c6         1 ZEL       0.396300
      2 C1M         43.2720   -59.2000     4.7940 c3         1 ZEL       0.143900
      3 C2          43.6820   -55.8170     6.5680 c6         1 ZEL       0.167300
      4 C3          44.6750   -55.4130     7.7160 c6         1 ZEL       0.136300
      5 C4          46.1230   -55.9050     7.4170 c6         1 ZEL       0.104300
      6 C5          46.1250   -57.4730     7.2520 c6         1 ZEL       0.144300
      7 C6          46.6630   -58.1960     8.5310 c3         1 ZEL       0.170600
      8 O1          42.9650   -57.9820     5.4910 os         1 ZEL      -0.411000
      9 O2          42.3280   -55.7500     7.0920 oh         1 ZEL      -0.689000
     10 O3          44.6520   -53.9900     7.9280 oh         1 ZEL      -0.648000
     11 O4          46.6060   -55.2460     6.2260 oh         1 ZEL      -0.700000
     12 O5          44.7880   -57.9820     6.9800 os         1 ZEL      -0.462000
     13 O6          46.6800   -59.6320     8.4120 oh         1 ZEL      -0.700000
     14 H1          44.7780   -57.0520     5.1300 h2         1 ZEL       0.031700
     15 H1M1        42.3500   -59.6820     4.4450 h1         1 ZEL       0.035367
     16 H1M2        43.9050   -59.0000     3.9200 h1         1 ZEL       0.035367
     17 H1M3        43.7980   -59.9060     5.4500 h1         1 ZEL       0.035367
     18 H2          43.7950   -55.0920     5.7490 h1         1 ZEL       0.064700
     19 HO2         42.2690   -54.8870     7.5640 ho         1 ZEL       0.507000
     20 H3          44.3490   -55.9200     8.6370 h1         1 ZEL       0.058700
     21 HO3         45.3250   -53.6290     7.3060 ho         1 ZEL       0.444000
     22 H4          46.7660   -55.6350     8.2690 h1         1 ZEL       0.036700
     23 HO4         47.5830   -55.3800     6.1860 ho         1 ZEL       0.503000
     24 H5          46.7800   -57.7480     6.4120 h1         1 ZEL       0.049700
     25 H61         47.6790   -57.8290     8.7300 h1         1 ZEL       0.022200
     26 H62         46.0370   -57.8980     9.3830 h1         1 ZEL       0.022200
     27 HO6         46.9570   -59.9890     9.2880 ho         1 ZEL       0.504000
@<TRIPOS>BOND
     1     1     3 1   
     2     1     8 1   
     3     1    12 1   
     4     1    14 1   
     5     2     8 1   
     6     2    15 1   
     7     2    16 1   
     8     2    17 1   
     9     3     4 1   
    10     3     9 1   
    11     3    18 1   
    12     4     5 1   
    13     4    10 1   
    14     4    20 1   
    15     5     6 1   
    16     5    11 1   
    17     5    22 1   
    18     6     7 1   
    19     6    12 1   
    20     6    24 1   
    21     7    13 1   
    22     7    25 1   
    23     7    26 1   
    24     9    19 1   
    25    10    21 1   
    26    11    23 1   
    27    13    27 1   
@<TRIPOS>SUBSTRUCTURE
     1 ZEL         1 TEMP              0 ****  ****    0 ROOT
