@<TRIPOS>MOLECULE
ZEN
   61    65     1     0     0
SMALL
bcc


@<TRIPOS>ATOM
      1 N1          -3.1830     0.4580     9.0840 nb         1 ZEN      -0.692000
      2 C2          -2.0510     1.1040     8.8140 ca         1 ZEN       0.429700
      3 C3          -1.2850     0.9160     7.6820 ca         1 ZEN      -0.323800
      4 C5          -2.8860    -0.6950     6.9950 ca         1 ZEN      -0.323800
      5 C6          -3.5690    -0.4200     8.1650 ca         1 ZEN       0.429700
      6 C4          -1.6790    -0.0280     6.7130 ca         1 ZEN       0.220600
      7 N7          -0.9320    -0.2890     5.5930 nh         1 ZEN      -0.662000
      8 C8          -1.4550    -1.2030     4.5890 c6         1 ZEN       0.211300
      9 C9          -0.3590    -1.7830     3.7080 c6         1 ZEN      -0.077900
     10 C11          1.0490     0.1800     4.1850 c6         1 ZEN      -0.077900
     11 C12         -0.0480     0.7440     5.0720 c6         1 ZEN       0.211300
     12 C10          0.4640    -0.6790     3.0620 c6         1 ZEN      -0.138700
     13 C13          1.5720    -1.2340     2.1830 c          1 ZEN       0.681100
     14 O23          1.9370    -2.3960     2.2970 o          1 ZEN      -0.594100
     15 N14          2.1670    -0.3870     1.3080 n          1 ZEN      -0.484800
     16 C15          3.2940    -0.8190     0.5040 c6         1 ZEN       0.099000
     17 C16          3.0180    -0.5990    -0.9720 c6         1 ZEN       0.169300
     18 C18          1.5340     1.2370    -0.4040 c6         1 ZEN       0.169300
     19 C19          1.8160     0.9980     1.0710 c6         1 ZEN       0.099000
     20 N17          2.6920     0.8110    -1.1880 n3         1 ZEN      -0.711500
     21 S20          2.7920     1.3800    -2.7400 sy         1 ZEN       1.295200
     22 O21          4.0520     0.9060    -3.2840 o          1 ZEN      -0.600800
     23 O22          2.5220     2.8060    -2.6830 o          1 ZEN      -0.600800
     24 C24          1.4780     0.6000    -3.6340 ca         1 ZEN      -0.303500
     25 C25          0.2590     1.2180    -3.7090 ca         1 ZEN       0.001000
     26 C33          1.6970    -0.6720    -4.2070 ca         1 ZEN      -0.054000
     27 C34          0.6700    -1.3060    -4.8440 ca         1 ZEN      -0.125000
     28 C26         -0.8110     0.5760    -4.3660 ca         1 ZEN      -0.069000
     29 C27         -0.6070    -0.7040    -4.9410 ca         1 ZEN       0.010000
     30 C28         -1.6770    -1.3470    -5.6010 ca         1 ZEN      -0.123000
     31 C30         -3.1120     0.5460    -5.1070 ca         1 ZEN      -0.124000
     32 C31         -2.0850     1.1810    -4.4690 ca         1 ZEN      -0.094000
     33 C29         -2.8920    -0.7270    -5.6730 ca         1 ZEN       0.047400
     34 CL32        -4.2090    -1.5070    -6.4760 cl         1 ZEN      -0.096400
     35 H2          -1.7200     1.8280     9.5510 h4         1 ZEN       0.013100
     36 H3          -0.3850     1.5040     7.5850 ha         1 ZEN       0.136500
     37 H5          -3.3210    -1.4150     6.3200 ha         1 ZEN       0.136500
     38 H6          -4.4980    -0.9470     8.3600 h4         1 ZEN       0.013100
     39 H82         -2.2110    -0.7020     3.9670 h1         1 ZEN       0.043200
     40 H81         -1.9480    -2.0360     5.0840 h1         1 ZEN       0.043200
     41 H92         -0.8360    -2.4130     2.9550 hc         1 ZEN       0.063700
     42 H91          0.2850    -2.4270     4.3090 hc         1 ZEN       0.063700
     43 H112         1.7320    -0.4280     4.7860 hc         1 ZEN       0.063700
     44 H111         1.6280     1.0200     3.8000 hc         1 ZEN       0.063700
     45 H122        -0.6300     1.4860     4.5080 h1         1 ZEN       0.043200
     46 H121         0.4320     1.2720     5.8900 h1         1 ZEN       0.043200
     47 H10         -0.2160    -0.0640     2.4630 hc         1 ZEN       0.057700
     48 H152         3.4910    -1.8730     0.6780 h1         1 ZEN       0.066700
     49 H151         4.1850    -0.2550     0.7980 h1         1 ZEN       0.066700
     50 H162         2.1950    -1.2480    -1.2950 h1         1 ZEN       0.063950
     51 H161         3.9090    -0.8670    -1.5360 h1         1 ZEN       0.063950
     52 H182         1.3540     2.3000    -0.5500 h1         1 ZEN       0.063950
     53 H181         0.6310     0.6870    -0.7010 h1         1 ZEN       0.063950
     54 H192         0.9340     1.2910     1.6310 h1         1 ZEN       0.066700
     55 H191         2.6400     1.6430     1.3910 h1         1 ZEN       0.066700
     56 H25          0.0950     2.1990    -3.2810 ha         1 ZEN       0.154000
     57 H33          2.6710    -1.1400    -4.1570 ha         1 ZEN       0.155000
     58 H34          0.8320    -2.2800    -5.2880 ha         1 ZEN       0.141000
     59 H28         -1.5220    -2.3240    -6.0410 ha         1 ZEN       0.154000
     60 H30         -4.0850     1.0100    -5.1810 ha         1 ZEN       0.153000
     61 H31         -2.2460     2.1590    -4.0340 ha         1 ZEN       0.141000
@<TRIPOS>BOND
     1     1     2 ar  
     2     1     5 ar  
     3     2     3 ar  
     4     2    35 1   
     5     3     6 ar  
     6     3    36 1   
     7     4     5 ar  
     8     4     6 ar  
     9     4    37 1   
    10     5    38 1   
    11     6     7 1   
    12     7     8 1   
    13     7    11 1   
    14     8     9 1   
    15     8    39 1   
    16     8    40 1   
    17     9    12 1   
    18     9    41 1   
    19     9    42 1   
    20    10    11 1   
    21    10    12 1   
    22    10    43 1   
    23    10    44 1   
    24    11    45 1   
    25    11    46 1   
    26    12    13 1   
    27    12    47 1   
    28    13    14 2   
    29    13    15 1   
    30    15    16 1   
    31    15    19 1   
    32    16    17 1   
    33    16    48 1   
    34    16    49 1   
    35    17    20 1   
    36    17    50 1   
    37    17    51 1   
    38    18    19 1   
    39    18    20 1   
    40    18    52 1   
    41    18    53 1   
    42    19    54 1   
    43    19    55 1   
    44    20    21 1   
    45    21    22 2   
    46    21    23 2   
    47    21    24 1   
    48    24    25 ar  
    49    24    26 ar  
    50    25    28 ar  
    51    25    56 1   
    52    26    27 ar  
    53    26    57 1   
    54    27    29 ar  
    55    27    58 1   
    56    28    29 ar  
    57    28    32 ar  
    58    29    30 ar  
    59    30    33 ar  
    60    30    59 1   
    61    31    32 ar  
    62    31    33 ar  
    63    31    60 1   
    64    32    61 1   
    65    33    34 1   
@<TRIPOS>SUBSTRUCTURE
     1 ZEN         1 TEMP              0 ****  ****    0 ROOT
