@<TRIPOS>MOLECULE
ZEN
   61    65     1     0     0
SMALL
No Charge or Current Charge


@<TRIPOS>ATOM
      1 N1          -3.0370     0.3820     9.4530 nb         1 ZEN      -0.692000
      2 C2          -1.7550     0.7640     9.2710 ca         1 ZEN       0.364400
      3 C3          -1.0690     0.5750     8.0670 ca         1 ZEN      -0.240500
      4 C5          -3.0550    -0.4350     7.1790 ca         1 ZEN      -0.240500
      5 C6          -3.6700    -0.2070     8.4150 ca         1 ZEN       0.364400
      6 C4          -1.7260    -0.0360     6.9950 ca         1 ZEN       0.359000
      7 N7          -1.0510    -0.2380     5.7720 nh         1 ZEN      -0.800400
      8 C8          -1.4190    -1.3660     4.8680 c6         1 ZEN       0.211300
      9 C9          -0.1900    -1.8570     4.0640 c6         1 ZEN      -0.077900
     10 C11          0.8170     0.4950     4.2710 c6         1 ZEN      -0.077900
     11 C12         -0.4390     0.9240     5.0680 c6         1 ZEN       0.211300
     12 C10          0.5010    -0.6860     3.3130 c6         1 ZEN      -0.138700
     13 C13          1.7200    -1.1100     2.4550 c          1 ZEN       0.614100
     14 O23          2.5040    -1.9490     2.8840 o          1 ZEN      -0.594100
     15 N14          1.9010    -0.5550     1.1650 n          1 ZEN      -0.417800
     16 C15          3.0250    -1.0610     0.3190 c6         1 ZEN       0.099000
     17 C16          2.9680    -0.6260    -1.1680 c6         1 ZEN       0.169300
     18 C18          1.5340     1.2440    -0.6310 c6         1 ZEN       0.169300
     19 C19          1.5370     0.8710     0.8750 c6         1 ZEN       0.099000
     20 N17          2.7880     0.8390    -1.3120 n3         1 ZEN      -0.711500
     21 S20          2.9630     1.4280    -2.9060 sy         1 ZEN       1.153600
     22 O21          4.2520     0.9180    -3.3880 o          1 ZEN      -0.530000
     23 O22          2.7090     2.8710    -2.8360 o          1 ZEN      -0.530000
     24 C24          1.6170     0.6150    -3.7870 ca         1 ZEN      -0.303500
     25 C25          0.3530     1.2350    -3.8640 ca         1 ZEN       0.019000
     26 C33          1.8220    -0.6370    -4.4050 ca         1 ZEN      -0.036000
     27 C34          0.7670    -1.2680    -5.0830 ca         1 ZEN      -0.107000
     28 C26         -0.7050     0.6010    -4.5440 ca         1 ZEN      -0.069000
     29 C27         -0.4980    -0.6550    -5.1550 ca         1 ZEN       0.010000
     30 C28         -1.5560    -1.2890    -5.8330 ca         1 ZEN      -0.105000
     31 C30         -3.0240     0.5780    -5.2960 ca         1 ZEN      -0.106000
     32 C31         -1.9710     1.2160    -4.6170 ca         1 ZEN      -0.076000
     33 C29         -2.8150    -0.6710    -5.9020 ca         1 ZEN       0.139000
     34 Cl32        -4.1350    -1.4660    -6.7500 cl         1 ZEN      -0.188000
     35 H2          -1.2630     1.2340    10.1220 h4         1 ZEN       0.013100
     36 H3          -0.0350     0.8900     7.9790 ha         1 ZEN       0.118500
     37 H5          -3.6200    -0.9030     6.3810 ha         1 ZEN       0.118500
     38 H6          -4.7050    -0.5040     8.5830 h4         1 ZEN       0.013100
     39 H82         -2.2080    -1.0470     4.1710 h1         1 ZEN       0.043200
     40 H81         -1.8130    -2.2130     5.4490 h1         1 ZEN       0.043200
     41 H92         -0.5010    -2.6350     3.3530 hc         1 ZEN       0.063700
     42 H91          0.5220    -2.3300     4.7540 hc         1 ZEN       0.063700
     43 H112         1.6060     0.1970     4.9750 hc         1 ZEN       0.063700
     44 H111         1.2080     1.3570     3.7140 hc         1 ZEN       0.063700
     45 H122        -1.1720     1.3670     4.3770 h1         1 ZEN       0.043200
     46 H121        -0.1520     1.7110     5.7800 h1         1 ZEN       0.043200
     47 H10         -0.2380    -0.2860     2.6090 hc         1 ZEN       0.057700
     48 H152         3.0480    -2.1600     0.3570 h1         1 ZEN       0.066700
     49 H151         3.9710    -0.7040     0.7490 h1         1 ZEN       0.066700
     50 H162         2.1430    -1.1660    -1.6550 h1         1 ZEN       0.063950
     51 H161         3.8980    -0.9590    -1.6520 h1         1 ZEN       0.063950
     52 H182         1.3780     2.3300    -0.7070 h1         1 ZEN       0.063950
     53 H181         0.6670     0.7620    -1.1060 h1         1 ZEN       0.063950
     54 H192         0.5450     1.1160     1.2750 h1         1 ZEN       0.066700
     55 H191         2.2590     1.5200     1.3890 h1         1 ZEN       0.066700
     56 H25          0.1870     2.2040    -3.3960 ha         1 ZEN       0.136000
     57 H33          2.7950    -1.1250    -4.3590 ha         1 ZEN       0.137000
     58 H34          0.9340    -2.2340    -5.5530 ha         1 ZEN       0.123000
     59 H28         -1.4050    -2.2550    -6.3060 ha         1 ZEN       0.136000
     60 H30         -4.0020     1.0510    -5.3520 ha         1 ZEN       0.135000
     61 H31         -2.1410     2.1840    -4.1500 ha         1 ZEN       0.123000
@<TRIPOS>BOND
     1     1     2 ar  
     2     1     5 ar  
     3     2     3 ar  
     4     2    35 1   
     5     3     6 ar  
     6     3    36 1   
     7     4     5 ar  
     8     4     6 ar  
     9     4    37 1   
    10     5    38 1   
    11     6     7 1   
    12     7     8 1   
    13     7    11 1   
    14     8     9 1   
    15     8    39 1   
    16     8    40 1   
    17     9    12 1   
    18     9    41 1   
    19     9    42 1   
    20    10    11 1   
    21    10    12 1   
    22    10    43 1   
    23    10    44 1   
    24    11    45 1   
    25    11    46 1   
    26    12    13 1   
    27    12    47 1   
    28    13    14 2   
    29    13    15 1   
    30    15    16 1   
    31    15    19 1   
    32    16    17 1   
    33    16    48 1   
    34    16    49 1   
    35    17    20 1   
    36    17    50 1   
    37    17    51 1   
    38    18    19 1   
    39    18    20 1   
    40    18    52 1   
    41    18    53 1   
    42    19    54 1   
    43    19    55 1   
    44    20    21 1   
    45    21    22 2   
    46    21    23 2   
    47    21    24 1   
    48    24    25 ar  
    49    24    26 ar  
    50    25    28 ar  
    51    25    56 1   
    52    26    27 ar  
    53    26    57 1   
    54    27    29 ar  
    55    27    58 1   
    56    28    29 ar  
    57    28    32 ar  
    58    29    30 ar  
    59    30    33 ar  
    60    30    59 1   
    61    31    32 ar  
    62    31    33 ar  
    63    31    60 1   
    64    32    61 1   
    65    33    34 1   
@<TRIPOS>SUBSTRUCTURE
     1 ZEN         1 TEMP              0 ****  ****    0 ROOT
