@<TRIPOS>MOLECULE
ZEP
   48    50     1     0     0
SMALL
No Charge or Current Charge


@<TRIPOS>ATOM
      1 C10          0.5950    60.4980   172.9990 cc         1 ZEP       0.433700
      2 C11          1.0770    59.6350   174.1330 c3         1 ZEP      -0.057400
      3 C12          0.3690    58.2810   174.1940 ca         1 ZEP      -0.129300
      4 C13         -0.7850    58.0900   174.9850 ca         1 ZEP       0.173000
      5 C15         -1.4270    56.8420   175.0210 ca         1 ZEP      -0.150000
      6 C16         -0.9240    55.7700   174.2650 ca         1 ZEP      -0.078000
      7 C17          0.2220    55.9520   173.4720 ca         1 ZEP      -0.124000
      8 O01          1.9030    63.6730   164.7200 o          1 ZEP      -0.542500
      9 C03          2.1580    62.4340   167.0930 ca         1 ZEP      -0.288500
     10 C04          0.9280    62.9780   167.5100 ca         1 ZEP      -0.022000
     11 C05          0.4140    62.6700   168.7810 ca         1 ZEP      -0.113000
     12 C06          1.1130    61.8130   169.6620 ca         1 ZEP      -0.061500
     13 C07          0.5720    61.4880   171.0060 cd         1 ZEP       0.328500
     14 C08         -0.6170    61.9650   171.5170 cc         1 ZEP      -0.258000
     15 S09         -0.9140    61.3620   173.1210 ss         1 ZEP       0.011600
     16 F14         -1.2900    59.1090   175.7160 f          1 ZEP      -0.183000
     17 C18          0.8660    57.2020   173.4360 ca         1 ZEP      -0.069000
     18 N19          1.2660    60.6440   171.8650 nd         1 ZEP      -0.641000
     19 C20          2.3450    61.2700   169.2270 ca         1 ZEP      -0.113000
     20 C21          2.8630    61.5750   167.9570 ca         1 ZEP      -0.022000
     21 N22          4.2120    63.7660   165.8460 n3         1 ZEP      -0.795500
     22 C23          4.1270    64.7280   166.9730 c3         1 ZEP       0.238800
     23 C24          3.1090    65.8810   166.8250 c3         1 ZEP      -0.106600
     24 C25          5.1270    64.0890   164.7280 c3         1 ZEP       0.238800
     25 C26          4.7400    65.2880   163.8410 c3         1 ZEP      -0.106600
     26 O27          3.3630    61.5680   164.9220 o          1 ZEP      -0.542500
     27 H1           2.1590    59.4840   174.0340 hc         1 ZEP       0.076700
     28 H2           0.9510    60.1810   175.0750 hc         1 ZEP       0.076700
     29 H3          -2.3150    56.7080   175.6340 ha         1 ZEP       0.133000
     30 H4          -1.4210    54.8020   174.2910 ha         1 ZEP       0.120000
     31 H5           0.6120    55.1240   172.8840 ha         1 ZEP       0.122000
     32 H6           0.3640    63.6400   166.8550 ha         1 ZEP       0.132500
     33 H7          -0.5370    63.1090   169.0700 ha         1 ZEP       0.125500
     34 H8          -1.3390    62.6280   171.0640 h4         1 ZEP       0.164000
     35 H9           1.7500    57.3310   172.8140 ha         1 ZEP       0.124000
     36 H10          2.9150    60.6060   169.8730 ha         1 ZEP       0.125500
     37 H11          3.8160    61.1480   167.6490 ha         1 ZEP       0.132500
     38 H12          5.1160    65.1770   167.1330 h1         1 ZEP       0.044700
     39 H13          3.8930    64.1940   167.9030 h1         1 ZEP       0.044700
     40 H14          3.1760    66.5450   167.6950 hc         1 ZEP       0.046033
     41 H15          3.2970    66.4830   165.9320 hc         1 ZEP       0.046033
     42 H16          2.0830    65.5050   166.7760 hc         1 ZEP       0.046033
     43 H17          5.2360    63.2110   164.0770 h1         1 ZEP       0.044700
     44 H18          6.1290    64.2880   165.1310 h1         1 ZEP       0.044700
     45 H19          5.3910    65.3220   162.9600 hc         1 ZEP       0.046033
     46 H20          3.7040    65.2150   163.4930 hc         1 ZEP       0.046033
     47 H21          4.8720    66.2320   164.3800 hc         1 ZEP       0.046033
     48 S02          2.8380    62.8250   165.4670 sy         1 ZEP       1.191600
@<TRIPOS>BOND
     1     1     2 1   
     2     1    15 1   
     3     1    18 2   
     4     2     3 1   
     5     2    27 1   
     6     2    28 1   
     7     3     4 ar  
     8     3    17 ar  
     9     4     5 ar  
    10     4    16 1   
    11     5     6 ar  
    12     5    29 1   
    13     6     7 ar  
    14     6    30 1   
    15     7    17 ar  
    16     7    31 1   
    17     8    48 2   
    18     9    10 ar  
    19     9    20 ar  
    20     9    48 1   
    21    10    11 ar  
    22    10    32 1   
    23    11    12 ar  
    24    11    33 1   
    25    12    13 1   
    26    12    19 ar  
    27    13    14 2   
    28    13    18 1   
    29    14    15 1   
    30    14    34 1   
    31    17    35 1   
    32    19    20 ar  
    33    19    36 1   
    34    20    37 1   
    35    21    22 1   
    36    21    24 1   
    37    21    48 1   
    38    22    23 1   
    39    22    38 1   
    40    22    39 1   
    41    23    40 1   
    42    23    41 1   
    43    23    42 1   
    44    24    25 1   
    45    24    43 1   
    46    24    44 1   
    47    25    45 1   
    48    25    46 1   
    49    25    47 1   
    50    26    48 2   
@<TRIPOS>SUBSTRUCTURE
     1 ZEP         1 TEMP              0 ****  ****    0 ROOT
