@<TRIPOS>MOLECULE
ZEP
   48    50     1     0     0
SMALL
bcc


@<TRIPOS>ATOM
      1 C10          0.8510    60.3960   173.0680 cc         1 ZEP       0.433700
      2 C11          1.4740    59.3890   173.9840 c3         1 ZEP      -0.057400
      3 C12          0.7480    58.0690   173.9250 ca         1 ZEP      -0.129300
      4 C13         -0.3530    57.7990   174.7240 ca         1 ZEP       0.137900
      5 C15         -1.0420    56.6030   174.6760 ca         1 ZEP      -0.168000
      6 C16         -0.6210    55.6280   173.7830 ca         1 ZEP      -0.096000
      7 C17          0.4730    55.8630   172.9610 ca         1 ZEP      -0.142000
      8 O01          1.1010    64.3530   165.2440 o          1 ZEP      -0.613300
      9 C03          1.5860    62.8600   167.3280 ca         1 ZEP      -0.288500
     10 C04          0.6510    63.5910   168.0500 ca         1 ZEP      -0.040000
     11 C05          0.3070    63.1860   169.3280 ca         1 ZEP      -0.131000
     12 C06          0.8830    62.0530   169.9030 ca         1 ZEP      -0.061500
     13 C07          0.5190    61.6110   171.2540 cd         1 ZEP       0.393800
     14 C08         -0.5560    62.0360   171.9790 cc         1 ZEP      -0.196400
     15 S09         -0.5880    61.2540   173.4960 ss         1 ZEP      -0.133300
     16 F14         -0.7700    58.7450   175.5850 f          1 ZEP      -0.147900
     17 C18          1.1460    57.0740   173.0360 ca         1 ZEP      -0.087000
     18 N19          1.2970    60.6790   171.8900 nd         1 ZEP      -0.641000
     19 C20          1.8190    61.3300   169.1590 ca         1 ZEP      -0.131000
     20 C21          2.1660    61.7230   167.8790 ca         1 ZEP      -0.040000
     21 N22          3.4940    64.2240   165.9470 n3         1 ZEP      -0.795500
     22 C23          3.4350    65.5820   166.4860 c3         1 ZEP       0.238800
     23 C24          3.5020    66.6650   165.4230 c3         1 ZEP      -0.106600
     24 C25          4.7770    63.5200   165.9000 c3         1 ZEP       0.238800
     25 C26          5.4920    63.6670   164.5690 c3         1 ZEP      -0.106600
     26 O27          2.4050    62.2240   164.9290 o          1 ZEP      -0.613300
     27 H1           2.5050    59.2480   173.6610 hc         1 ZEP       0.076700
     28 H2           1.5090    59.7760   175.0040 hc         1 ZEP       0.076700
     29 H3          -1.8910    56.4410   175.3270 ha         1 ZEP       0.151000
     30 H4          -1.1500    54.6860   173.7350 ha         1 ZEP       0.138000
     31 H5           0.8040    55.1050   172.2650 ha         1 ZEP       0.140000
     32 H6           0.1860    64.4710   167.6280 ha         1 ZEP       0.150500
     33 H7          -0.4140    63.7750   169.8800 ha         1 ZEP       0.143500
     34 H8          -1.3200    62.7460   171.7030 h4         1 ZEP       0.182000
     35 H9           2.0020    57.2570   172.3970 ha         1 ZEP       0.142000
     36 H10          2.2730    60.4440   169.5810 ha         1 ZEP       0.143500
     37 H11          2.8790    61.1320   167.3210 ha         1 ZEP       0.150500
     38 H12          4.2670    65.6880   167.1830 h1         1 ZEP       0.044700
     39 H13          2.5320    65.7080   167.0880 h1         1 ZEP       0.044700
     40 H14          3.4650    67.6480   165.8940 hc         1 ZEP       0.046033
     41 H15          4.4270    66.6060   164.8500 hc         1 ZEP       0.046033
     42 H16          2.6650    66.5880   164.7320 hc         1 ZEP       0.046033
     43 H17          4.6340    62.4640   166.1280 h1         1 ZEP       0.044700
     44 H18          5.3910    63.9200   166.7080 h1         1 ZEP       0.044700
     45 H19          6.4390    63.1260   164.5940 hc         1 ZEP       0.046033
     46 H20          4.8920    63.2590   163.7560 hc         1 ZEP       0.046033
     47 H21          5.7100    64.7110   164.3450 hc         1 ZEP       0.046033
     48 S02          2.1000    63.4080   165.7180 sy         1 ZEP       1.333200
@<TRIPOS>BOND
     1     1     2 1   
     2     1    15 1   
     3     1    18 2   
     4     2     3 1   
     5     2    27 1   
     6     2    28 1   
     7     3     4 ar  
     8     3    17 ar  
     9     4     5 ar  
    10     4    16 1   
    11     5     6 ar  
    12     5    29 1   
    13     6     7 ar  
    14     6    30 1   
    15     7    17 ar  
    16     7    31 1   
    17     8    48 2   
    18     9    10 ar  
    19     9    20 ar  
    20     9    48 1   
    21    10    11 ar  
    22    10    32 1   
    23    11    12 ar  
    24    11    33 1   
    25    12    13 1   
    26    12    19 ar  
    27    13    14 2   
    28    13    18 1   
    29    14    15 1   
    30    14    34 1   
    31    17    35 1   
    32    19    20 ar  
    33    19    36 1   
    34    20    37 1   
    35    21    22 1   
    36    21    24 1   
    37    21    48 1   
    38    22    23 1   
    39    22    38 1   
    40    22    39 1   
    41    23    40 1   
    42    23    41 1   
    43    23    42 1   
    44    24    25 1   
    45    24    43 1   
    46    24    44 1   
    47    25    45 1   
    48    25    46 1   
    49    25    47 1   
    50    26    48 2   
@<TRIPOS>SUBSTRUCTURE
     1 ZEP         1 TEMP              0 ****  ****    0 ROOT
