@<TRIPOS>MOLECULE
ZER
   45    46     1     0     0
SMALL
abcg2


@<TRIPOS>ATOM
      1 O12         -0.3450     0.4930    -1.0590 o          1 ZER      -0.473000
      2 C12          0.4760     0.9350    -0.2990 c          1 ZER       0.622700
      3 O10          0.2940     2.0190     0.4530 os         1 ZER      -0.483100
      4 C10         -0.9630     2.7550     0.4620 c3         1 ZER       0.194300
      5 C11         -1.1750     3.5160    -0.8330 c3         1 ZER      -0.121100
      6 C9P         -2.1500     1.9020     0.9410 c3         1 ZER      -0.094400
      7 C1           1.8290     0.3560    -0.0980 ca         1 ZER      -0.257600
      8 C2           2.9700     1.1720    -0.1980 ca         1 ZER       0.224100
      9 O2           2.9080     2.5010    -0.3950 oh         1 ZER      -0.537100
     10 C3           4.2410     0.6200    -0.1430 ca         1 ZER      -0.202000
     11 C4           4.3910    -0.7440     0.0680 ca         1 ZER       0.198100
     12 O4           5.6420    -1.2280     0.1140 oh         1 ZER      -0.525100
     13 C5           3.2700    -1.5520     0.2440 ca         1 ZER      -0.251000
     14 C6           1.9940    -1.0160     0.1490 ca         1 ZER       0.083200
     15 C1P          0.8580    -1.9160     0.4660 ce         1 ZER      -0.213200
     16 C2P          0.0090    -2.4570    -0.4000 c2         1 ZER      -0.166200
     17 C3P         -1.1020    -3.3860    -0.0230 c3         1 ZER      -0.050200
     18 C4P         -2.4820    -2.8250    -0.3790 c3         1 ZER      -0.056400
     19 C5P         -2.8210    -1.5830     0.4300 c3         1 ZER      -0.185400
     20 C6P         -4.0880    -0.8790     0.0170 c          1 ZER       0.574100
     21 O6P         -4.9200    -1.4160    -0.6830 o          1 ZER      -0.524100
     22 C7P         -4.2630     0.5390     0.5070 c3         1 ZER      -0.182400
     23 C8P         -3.1950     1.4850    -0.0920 c3         1 ZER      -0.068400
     24 H1          -0.7570     3.4860     1.2420 h1         1 ZER       0.068700
     25 H2          -1.3520     2.8690    -1.6900 hc         1 ZER       0.052367
     26 H3          -2.0410     4.1710    -0.7210 hc         1 ZER       0.052367
     27 H4          -0.3160     4.1520    -1.0500 hc         1 ZER       0.052367
     28 H5          -1.7690     1.0240     1.4710 hc         1 ZER       0.049200
     29 H6          -2.6690     2.4860     1.7060 hc         1 ZER       0.049200
     30 H7           2.0400     2.8450    -0.1490 ho         1 ZER       0.487000
     31 H8           5.1090     1.2580    -0.2510 ha         1 ZER       0.148000
     32 H9           5.6310    -2.1820     0.2580 ho         1 ZER       0.471000
     33 H10          3.3880    -2.6080     0.4590 ha         1 ZER       0.122000
     34 H11          0.7710    -2.1770     1.5190 ha         1 ZER       0.179000
     35 H12          0.0950    -2.2160    -1.4560 ha         1 ZER       0.187000
     36 H13         -0.9680    -4.3340    -0.5520 hc         1 ZER       0.046700
     37 H14         -1.0540    -3.6120     1.0460 hc         1 ZER       0.046700
     38 H15         -2.5100    -2.5900    -1.4460 hc         1 ZER       0.054200
     39 H16         -3.2340    -3.5990    -0.2150 hc         1 ZER       0.054200
     40 H17         -2.9310    -1.8320     1.4930 hc         1 ZER       0.065200
     41 H18         -1.9950    -0.8710     0.3940 hc         1 ZER       0.065200
     42 H19         -5.2660     0.8740     0.2450 hc         1 ZER       0.062700
     43 H20         -4.1960     0.5470     1.6000 hc         1 ZER       0.062700
     44 H21         -3.7000     2.3740    -0.4710 hc         1 ZER       0.058200
     45 H22         -2.7210     1.0200    -0.9560 hc         1 ZER       0.058200
@<TRIPOS>BOND
     1     1     2 2   
     2     2     3 1   
     3     2     7 1   
     4     3     4 1   
     5     4     5 1   
     6     4     6 1   
     7     4    24 1   
     8     5    25 1   
     9     5    26 1   
    10     5    27 1   
    11     6    23 1   
    12     6    28 1   
    13     6    29 1   
    14     7     8 ar  
    15     7    14 ar  
    16     8     9 1   
    17     8    10 ar  
    18     9    30 1   
    19    10    11 ar  
    20    10    31 1   
    21    11    12 1   
    22    11    13 ar  
    23    12    32 1   
    24    13    14 ar  
    25    13    33 1   
    26    14    15 1   
    27    15    16 2   
    28    15    34 1   
    29    16    17 1   
    30    16    35 1   
    31    17    18 1   
    32    17    36 1   
    33    17    37 1   
    34    18    19 1   
    35    18    38 1   
    36    18    39 1   
    37    19    20 1   
    38    19    40 1   
    39    19    41 1   
    40    20    21 2   
    41    20    22 1   
    42    22    23 1   
    43    22    42 1   
    44    22    43 1   
    45    23    44 1   
    46    23    45 1   
@<TRIPOS>SUBSTRUCTURE
     1 ZER         1 TEMP              0 ****  ****    0 ROOT
