@<TRIPOS>MOLECULE
ZER
   45    46     1     0     0
SMALL
No Charge or Current Charge


@<TRIPOS>ATOM
      1 O12         -0.4340     0.5340    -0.9970 o          1 ZER      -0.473000
      2 C12          0.4060     1.0020    -0.2440 c          1 ZER       0.622700
      3 O10          0.2850     2.2040     0.4190 os         1 ZER      -0.483100
      4 C10         -0.9670     2.9360     0.4480 c3         1 ZER       0.194300
      5 C11         -1.2130     3.5930    -0.9320 c3         1 ZER      -0.121100
      6 C9P         -2.1100     2.0450     1.0410 c3         1 ZER      -0.094400
      7 C1           1.7680     0.3990    -0.0890 ca         1 ZER      -0.257600
      8 C2           2.9260     1.1800    -0.2600 ca         1 ZER       0.224100
      9 O2           2.8370     2.5200    -0.4790 oh         1 ZER      -0.537100
     10 C3           4.1940     0.5880    -0.2070 ca         1 ZER      -0.202000
     11 C4           4.3170    -0.7840     0.0340 ca         1 ZER       0.198100
     12 O4           5.5520    -1.3520     0.0870 oh         1 ZER      -0.525100
     13 C5           3.1740    -1.5650     0.2420 ca         1 ZER      -0.251000
     14 C6           1.8990    -0.9780     0.1910 ca         1 ZER       0.083200
     15 C1P          0.7100    -1.8060     0.5030 ce         1 ZER      -0.213200
     16 C2P          0.2170    -2.7710    -0.3000 c2         1 ZER      -0.166200
     17 C3P         -1.0310    -3.5920    -0.0310 c3         1 ZER      -0.050200
     18 C4P         -2.3280    -2.8830    -0.4860 c3         1 ZER      -0.056400
     19 C5P         -2.7790    -1.7210     0.4400 c3         1 ZER      -0.185400
     20 C6P         -3.9080    -0.8310    -0.1070 c          1 ZER       0.574100
     21 O6P         -4.5560    -1.1370    -1.1010 o          1 ZER      -0.524100
     22 C7P         -4.1670     0.4930     0.6320 c3         1 ZER      -0.182400
     23 C8P         -3.2700     1.6390     0.0850 c3         1 ZER      -0.068400
     24 H1          -0.8410     3.7700     1.1520 h1         1 ZER       0.068700
     25 H2          -1.3380     2.8560    -1.7310 hc         1 ZER       0.052367
     26 H3          -2.1130     4.2190    -0.9000 hc         1 ZER       0.052367
     27 H4          -0.3680     4.2390    -1.1980 hc         1 ZER       0.052367
     28 H5          -1.6690     1.1480     1.4910 hc         1 ZER       0.049200
     29 H6          -2.5560     2.5910     1.8820 hc         1 ZER       0.049200
     30 H7           1.9300     2.7890    -0.2030 ho         1 ZER       0.487000
     31 H8           5.0820     1.1950    -0.3500 ha         1 ZER       0.148000
     32 H9           5.4390    -2.3090     0.2690 ho         1 ZER       0.471000
     33 H10          3.2650    -2.6260     0.4600 ha         1 ZER       0.122000
     34 H11          0.2150    -1.5550     1.4420 ha         1 ZER       0.179000
     35 H12          0.7110    -3.0000    -1.2470 ha         1 ZER       0.187000
     36 H13         -0.9530    -4.5470    -0.5640 hc         1 ZER       0.046700
     37 H14         -1.1050    -3.8430     1.0350 hc         1 ZER       0.046700
     38 H15         -2.1800    -2.5040    -1.5060 hc         1 ZER       0.054200
     39 H16         -3.1380    -3.6210    -0.5400 hc         1 ZER       0.054200
     40 H17         -3.0840    -2.0830     1.4280 hc         1 ZER       0.065200
     41 H18         -1.9500    -1.0600     0.7060 hc         1 ZER       0.065200
     42 H19         -5.2190     0.7730     0.5010 hc         1 ZER       0.062700
     43 H20         -3.9400     0.3630     1.6970 hc         1 ZER       0.062700
     44 H21         -3.8940     2.5240    -0.0940 hc         1 ZER       0.058200
     45 H22         -2.8810     1.3440    -0.8960 hc         1 ZER       0.058200
@<TRIPOS>BOND
     1     1     2 2   
     2     2     3 1   
     3     2     7 1   
     4     3     4 1   
     5     4     5 1   
     6     4     6 1   
     7     4    24 1   
     8     5    25 1   
     9     5    26 1   
    10     5    27 1   
    11     6    23 1   
    12     6    28 1   
    13     6    29 1   
    14     7     8 ar  
    15     7    14 ar  
    16     8     9 1   
    17     8    10 ar  
    18     9    30 1   
    19    10    11 ar  
    20    10    31 1   
    21    11    12 1   
    22    11    13 ar  
    23    12    32 1   
    24    13    14 ar  
    25    13    33 1   
    26    14    15 1   
    27    15    16 2   
    28    15    34 1   
    29    16    17 1   
    30    16    35 1   
    31    17    18 1   
    32    17    36 1   
    33    17    37 1   
    34    18    19 1   
    35    18    38 1   
    36    18    39 1   
    37    19    20 1   
    38    19    40 1   
    39    19    41 1   
    40    20    21 2   
    41    20    22 1   
    42    22    23 1   
    43    22    42 1   
    44    22    43 1   
    45    23    44 1   
    46    23    45 1   
@<TRIPOS>SUBSTRUCTURE
     1 ZER         1 TEMP              0 ****  ****    0 ROOT
