@<TRIPOS>MOLECULE
ZES
   36    38     1     0     0
SMALL
abcg2


@<TRIPOS>ATOM
      1 C1          -2.8540    -0.1310    -3.5250 ca         1 ZES      -0.180000
      2 C2          -2.4230    -0.7610    -2.3800 ca         1 ZES      -0.014000
      3 C3          -1.1020    -0.6480    -1.9500 ca         1 ZES      -0.241600
      4 C4          -0.1830     0.1100    -2.6770 ca         1 ZES       0.175600
      5 C5          -0.6110     0.7470    -3.8480 ca         1 ZES      -0.141000
      6 C6          -1.9250     0.6170    -4.2430 ca         1 ZES       0.176000
      7 C10         -0.6780    -1.3380    -0.7390 c          1 ZES       0.601600
      8 N11          0.6500    -1.1820    -0.4030 n          1 ZES      -0.373400
      9 C12          1.5880    -0.4830    -1.1570 c          1 ZES       0.632000
     10 N13          1.1160     0.2270    -2.2290 n          1 ZES      -0.239000
     11 C14          1.0980    -1.8510     0.8170 c3         1 ZES       0.149300
     12 C15          0.4990    -1.2520     2.0600 ca         1 ZES      -0.113300
     13 C18          0.7170     0.0700     2.4130 ca         1 ZES       0.189000
     14 C19          0.2070     0.6450     3.5610 ca         1 ZES      -0.140000
     15 C20         -0.5550    -0.1540     4.4000 ca         1 ZES       0.005100
     16 C21         -0.8010    -1.4850     4.0980 ca         1 ZES      -0.112000
     17 C22         -0.2760    -2.0120     2.9280 ca         1 ZES      -0.059000
     18 CL6         -2.4320     1.4090    -5.6930 cl         1 ZES      -0.218000
     19 C27          2.0940     0.9220    -3.0480 c3         1 ZES      -0.075000
     20 C28          2.5610     0.0920    -4.2660 c          1 ZES       0.713000
     21 O31          2.2250    -1.1010    -4.2950 o          1 ZES      -0.710500
     22 O32          3.2530     0.7230    -5.0850 o          1 ZES      -0.710500
     23 O33          2.7630    -0.4900    -0.8560 o          1 ZES      -0.548000
     24 O34         -1.4170    -2.0180    -0.0540 o          1 ZES      -0.568000
     25 F35          1.4610     0.8400     1.6060 f          1 ZES      -0.161000
     26 BR3         -1.2650     0.5920     5.9780 br         1 ZES      -0.112100
     27 H1          -3.8780    -0.2180    -3.8590 ha         1 ZES       0.120000
     28 H2          -3.1170    -1.3570    -1.8030 ha         1 ZES       0.126000
     29 H5           0.0610     1.3350    -4.4530 ha         1 ZES       0.161000
     30 H141         0.8350    -2.9060     0.7600 h1         1 ZES       0.080200
     31 H142         2.1820    -1.7910     0.8500 h1         1 ZES       0.080200
     32 H19          0.4130     1.6830     3.7820 ha         1 ZES       0.142000
     33 H21         -1.4000    -2.1060     4.7490 ha         1 ZES       0.127000
     34 H22         -0.4750    -3.0470     2.6830 ha         1 ZES       0.127000
     35 H271         2.9570     1.1560    -2.4290 h1         1 ZES       0.055700
     36 H272         1.6840     1.8840    -3.3550 h1         1 ZES       0.055700
@<TRIPOS>BOND
     1     1     2 ar  
     2     1     6 ar  
     3     1    27 1   
     4     2     3 ar  
     5     2    28 1   
     6     3     4 ar  
     7     3     7 1   
     8     4     5 ar  
     9     4    10 1   
    10     5     6 ar  
    11     5    29 1   
    12     6    18 1   
    13     7     8 1   
    14     7    24 2   
    15     8     9 1   
    16     8    11 1   
    17     9    10 1   
    18     9    23 2   
    19    10    19 1   
    20    11    12 1   
    21    11    30 1   
    22    11    31 1   
    23    12    13 ar  
    24    12    17 ar  
    25    13    14 ar  
    26    13    25 1   
    27    14    15 ar  
    28    14    32 1   
    29    15    16 ar  
    30    15    26 1   
    31    16    17 ar  
    32    16    33 1   
    33    17    34 1   
    34    19    20 1   
    35    19    35 1   
    36    19    36 1   
    37    20    21 1   
    38    20    22 1   
@<TRIPOS>SUBSTRUCTURE
     1 ZES         1 TEMP              0 ****  ****    0 ROOT
