@<TRIPOS>MOLECULE
ZES
   36    38     1     0     0
SMALL
No Charge or Current Charge


@<TRIPOS>ATOM
      1 C1          -2.8900    -0.1690    -3.5750 ca         1 ZES      -0.180000
      2 C2          -2.4440    -0.8370    -2.4260 ca         1 ZES      -0.014000
      3 C3          -1.0990    -0.7190    -2.0100 ca         1 ZES      -0.241600
      4 C4          -0.1920     0.0530    -2.7560 ca         1 ZES       0.175600
      5 C5          -0.6640     0.7430    -3.8980 ca         1 ZES      -0.141000
      6 C6          -1.9990     0.6240    -4.3050 ca         1 ZES       0.176000
      7 C10         -0.6430    -1.4130    -0.7680 c          1 ZES       0.601600
      8 N11          0.6830    -1.2160    -0.3710 n          1 ZES      -0.373400
      9 C12          1.6120    -0.4640    -1.1100 c          1 ZES       0.632000
     10 N13          1.1660     0.1730    -2.2930 n          1 ZES      -0.239000
     11 C14          1.1260    -1.8680     0.8970 c3         1 ZES       0.149300
     12 C15          0.5270    -1.2440     2.1590 ca         1 ZES      -0.113300
     13 C18          0.9300     0.0330     2.6060 ca         1 ZES       0.189000
     14 C19          0.3730     0.5930     3.7670 ca         1 ZES      -0.140000
     15 C20         -0.5930    -0.1190     4.4940 ca         1 ZES       0.005100
     16 C21         -1.0000    -1.3910     4.0620 ca         1 ZES      -0.112000
     17 C22         -0.4420    -1.9530     2.9000 ca         1 ZES      -0.059000
     18 Cl6         -2.5600     1.4780    -5.7360 cl         1 ZES      -0.218000
     19 C27          2.1690     0.9170    -3.1270 c3         1 ZES      -0.075000
     20 C28          2.5840     0.1920    -4.4240 c          1 ZES       0.713000
     21 O31          2.9240    -0.9800    -4.3510 o          1 ZES      -0.710500
     22 O32          2.5230     0.8140    -5.4740 o          1 ZES      -0.710500
     23 O33          2.7770    -0.3710    -0.7430 o          1 ZES      -0.548000
     24 O34         -1.4070    -2.1300    -0.1340 o          1 ZES      -0.568000
     25 F35          1.8610     0.7360     1.9260 f          1 ZES      -0.161000
     26 Br3         -1.3530     0.6430     6.0730 br         1 ZES      -0.112100
     27 H1          -3.9250    -0.2590    -3.8920 ha         1 ZES       0.120000
     28 H2          -3.1510    -1.4400    -1.8590 ha         1 ZES       0.126000
     29 H5          -0.0140     1.3730    -4.4930 ha         1 ZES       0.161000
     30 H141         0.8490    -2.9300     0.8530 h1         1 ZES       0.080200
     31 H142         2.2190    -1.8570     0.9910 h1         1 ZES       0.080200
     32 H19          0.6920     1.5770     4.0980 ha         1 ZES       0.142000
     33 H21         -1.7490    -1.9440     4.6260 ha         1 ZES       0.127000
     34 H22         -0.7680    -2.9380     2.5740 ha         1 ZES       0.127000
     35 H271         3.0880     1.1100    -2.5620 h1         1 ZES       0.055700
     36 H272         1.7640     1.9030    -3.3850 h1         1 ZES       0.055700
@<TRIPOS>BOND
     1     1     2 ar  
     2     1     6 ar  
     3     1    27 1   
     4     2     3 ar  
     5     2    28 1   
     6     3     4 ar  
     7     3     7 1   
     8     4     5 ar  
     9     4    10 1   
    10     5     6 ar  
    11     5    29 1   
    12     6    18 1   
    13     7     8 1   
    14     7    24 2   
    15     8     9 1   
    16     8    11 1   
    17     9    10 1   
    18     9    23 2   
    19    10    19 1   
    20    11    12 1   
    21    11    30 1   
    22    11    31 1   
    23    12    13 ar  
    24    12    17 ar  
    25    13    14 ar  
    26    13    25 1   
    27    14    15 ar  
    28    14    32 1   
    29    15    16 ar  
    30    15    26 1   
    31    16    17 ar  
    32    16    33 1   
    33    17    34 1   
    34    19    20 1   
    35    19    35 1   
    36    19    36 1   
    37    20    21 1   
    38    20    22 1   
@<TRIPOS>SUBSTRUCTURE
     1 ZES         1 TEMP              0 ****  ****    0 ROOT
