@<TRIPOS>MOLECULE
ZEU
   29    28     1     0     0
SMALL
bcc


@<TRIPOS>ATOM
      1 C1          -4.7510     0.0280    -0.0240 c          1 ZEU       0.927600
      2 O1          -5.7550    -0.7170    -0.0190 o          1 ZEU      -0.849300
      3 O2          -4.7610     1.2740    -0.0350 o          1 ZEU      -0.849300
      4 C2          -3.3870    -0.6850    -0.0160 c3         1 ZEU      -0.204400
      5 C3          -2.1590     0.2110     0.0010 c3         1 ZEU      -0.053400
      6 C4          -0.8550    -0.5790    -0.0030 c3         1 ZEU      -0.079400
      7 C5           0.3860     0.3060     0.0110 c3         1 ZEU      -0.075400
      8 C6           1.6890    -0.4820    -0.0020 c3         1 ZEU      -0.074400
      9 C7           2.9260     0.4080     0.0130 c3         1 ZEU      -0.076400
     10 C8           4.2310    -0.3800    -0.0160 c3         1 ZEU      -0.081400
     11 C9           5.4420     0.5310    -0.0010 c3         1 ZEU       0.137400
     12 O3           6.6170    -0.2530    -0.0390 oh         1 ZEU      -0.602800
     13 H3O          7.3730     0.3410    -0.0400 ho         1 ZEU       0.396000
     14 H21         -3.3600    -1.3610     0.8470 hc         1 ZEU       0.014700
     15 H22         -3.3450    -1.3460    -0.8900 hc         1 ZEU       0.014700
     16 H31         -2.1760     0.8810    -0.8640 hc         1 ZEU       0.037700
     17 H32         -2.1830     0.8600     0.8820 hc         1 ZEU       0.037700
     18 H41         -0.8290    -1.2500     0.8630 hc         1 ZEU       0.023700
     19 H42         -0.8240    -1.2280    -0.8860 hc         1 ZEU       0.023700
     20 H51          0.3610     0.9790    -0.8540 hc         1 ZEU       0.033700
     21 H52          0.3600     0.9520     0.8960 hc         1 ZEU       0.033700
     22 H61          1.7170    -1.1560     0.8620 hc         1 ZEU       0.034200
     23 H62          1.7160    -1.1260    -0.8880 hc         1 ZEU       0.034200
     24 H71          2.8910     1.0870    -0.8460 hc         1 ZEU       0.034700
     25 H72          2.9020     1.0440     0.9040 hc         1 ZEU       0.034700
     26 H81          4.2710    -1.0550     0.8450 hc         1 ZEU       0.049700
     27 H82          4.2590    -1.0090    -0.9120 hc         1 ZEU       0.049700
     28 H91          5.3890     1.2130    -0.8600 h1         1 ZEU       0.013700
     29 H92          5.4090     1.1580     0.9000 h1         1 ZEU       0.013700
@<TRIPOS>BOND
     1     1     2 1   
     2     1     3 1   
     3     1     4 1   
     4     4     5 1   
     5     4    14 1   
     6     4    15 1   
     7     5     6 1   
     8     5    16 1   
     9     5    17 1   
    10     6     7 1   
    11     6    18 1   
    12     6    19 1   
    13     7     8 1   
    14     7    20 1   
    15     7    21 1   
    16     8     9 1   
    17     8    22 1   
    18     8    23 1   
    19     9    10 1   
    20     9    24 1   
    21     9    25 1   
    22    10    11 1   
    23    10    26 1   
    24    10    27 1   
    25    11    12 1   
    26    11    28 1   
    27    11    29 1   
    28    12    13 1   
@<TRIPOS>SUBSTRUCTURE
     1 ZEU         1 TEMP              0 ****  ****    0 ROOT
