@<TRIPOS>MOLECULE
ZEU
   29    28     1     0     0
SMALL
No Charge or Current Charge


@<TRIPOS>ATOM
      1 C1          -4.7490     0.0820     0.0050 c          1 ZEU       0.717000
      2 O1          -5.2190     0.2600     1.1190 o          1 ZEU      -0.744000
      3 O2          -5.2160     0.5740    -1.0110 o          1 ZEU      -0.744000
      4 C2          -3.4640    -0.7580    -0.1170 c3         1 ZEU      -0.204400
      5 C3          -2.2170     0.1500     0.0190 c3         1 ZEU      -0.053400
      6 C4          -0.8850    -0.6260    -0.0940 c3         1 ZEU      -0.079400
      7 C5           0.3570     0.2820     0.0420 c3         1 ZEU      -0.075400
      8 C6           1.6880    -0.4930    -0.0700 c3         1 ZEU      -0.074400
      9 C7           2.9300     0.4150     0.0650 c3         1 ZEU      -0.076400
     10 C8           4.2620    -0.3600    -0.0470 c3         1 ZEU      -0.081400
     11 C9           5.5000     0.5490     0.0890 c3         1 ZEU       0.160600
     12 O3           6.6910    -0.2350    -0.0250 oh         1 ZEU      -0.665000
     13 H3O          7.4490     0.3850     0.0670 ho         1 ZEU       0.435000
     14 H21         -3.3990    -1.4820     0.7050 hc         1 ZEU       0.014700
     15 H22         -3.3970    -1.2140    -1.1130 hc         1 ZEU       0.014700
     16 H31         -2.2490     0.9240    -0.7580 hc         1 ZEU       0.037700
     17 H32         -2.2510     0.6670     0.9860 hc         1 ZEU       0.037700
     18 H41         -0.8520    -1.3990     0.6840 hc         1 ZEU       0.023700
     19 H42         -0.8490    -1.1420    -1.0610 hc         1 ZEU       0.023700
     20 H51          0.3240     1.0560    -0.7360 hc         1 ZEU       0.033700
     21 H52          0.3220     0.7990     1.0090 hc         1 ZEU       0.033700
     22 H61          1.7210    -1.2670     0.7070 hc         1 ZEU       0.034200
     23 H62          1.7230    -1.0090    -1.0380 hc         1 ZEU       0.034200
     24 H71          2.8970     1.1890    -0.7120 hc         1 ZEU       0.034700
     25 H72          2.8950     0.9310     1.0330 hc         1 ZEU       0.034700
     26 H81          4.2970    -1.1330     0.7310 hc         1 ZEU       0.049700
     27 H82          4.2990    -0.8750    -1.0150 hc         1 ZEU       0.049700
     28 H91          5.4740     1.3170    -0.6960 h1         1 ZEU       0.013700
     29 H92          5.4710     1.0580     1.0620 h1         1 ZEU       0.013700
@<TRIPOS>BOND
     1     1     2 1   
     2     1     3 1   
     3     1     4 1   
     4     4     5 1   
     5     4    14 1   
     6     4    15 1   
     7     5     6 1   
     8     5    16 1   
     9     5    17 1   
    10     6     7 1   
    11     6    18 1   
    12     6    19 1   
    13     7     8 1   
    14     7    20 1   
    15     7    21 1   
    16     8     9 1   
    17     8    22 1   
    18     8    23 1   
    19     9    10 1   
    20     9    24 1   
    21     9    25 1   
    22    10    11 1   
    23    10    26 1   
    24    10    27 1   
    25    11    12 1   
    26    11    28 1   
    27    11    29 1   
    28    12    13 1   
@<TRIPOS>SUBSTRUCTURE
     1 ZEU         1 TEMP              0 ****  ****    0 ROOT
