@<TRIPOS>MOLECULE
ZEV
   65    71     1     0     0
SMALL
bcc


@<TRIPOS>ATOM
      1 N1          49.0550     7.5860   -18.9750 nc         1 ZEV      -0.544100
      2 N3          52.4890     7.1160   -18.1970 nb         1 ZEV      -0.744000
      3 C4          51.1950     7.0120   -18.4910 ca         1 ZEV       0.440800
      4 C5          50.3050     8.0580   -18.6750 ca         1 ZEV      -0.202200
      5 C6          49.1820     6.2920   -18.9650 cd         1 ZEV       0.462700
      6 C7          50.8270     9.3550   -18.5210 ca         1 ZEV       0.765200
      7 C8          52.8650     8.3790   -18.0920 ca         1 ZEV       0.678900
      8 C10         48.3210     2.3280   -19.4460 c3         1 ZEV       0.194400
      9 C13         44.5870     1.8730   -15.8650 c5         1 ZEV       0.104100
     10 C15         44.5590     6.2460   -17.6730 cc         1 ZEV       0.158800
     11 C17         46.2180     5.4120   -16.5070 cc         1 ZEV       0.420400
     12 P           48.4200     2.1450   -15.0480 p5         1 ZEV       1.750300
     13 O           46.9940     1.8250   -15.7960 os         1 ZEV      -0.583200
     14 S           48.9340     0.6140   -13.9310 s          1 ZEV      -1.332000
     15 O1          49.3620     2.0860   -16.3910 os         1 ZEV      -0.536200
     16 C1          49.4600     3.1690   -17.2860 c5         1 ZEV       0.152100
     17 C9          49.6040     2.6470   -18.7180 c5         1 ZEV       0.126100
     18 O2          50.3100     3.6680   -19.4210 os         1 ZEV      -0.393600
     19 C3          50.9710     4.5290   -18.5500 c5         1 ZEV       0.239800
     20 N           50.4590     5.8780   -18.6860 na         1 ZEV      -0.267000
     21 N2          52.1260     9.4770   -18.2300 nb         1 ZEV      -0.853000
     22 N4          50.0800    10.4530   -18.6730 nv         1 ZEV      -0.959500
     23 C2          50.7470     3.9550   -17.1400 c5         1 ZEV       0.112600
     24 F1          50.6910     4.9540   -16.1970 f          1 ZEV      -0.201300
     25 O3          47.5230     3.4910   -19.4900 os         1 ZEV      -0.587200
     26 P1          46.1110     3.6170   -20.3110 p5         1 ZEV       1.753300
     27 S1          46.1910     2.6150   -21.9990 s          1 ZEV      -1.336000
     28 O7          45.7750     5.0690   -20.2940 o          1 ZEV      -0.726500
     29 O4          45.0780     2.7650   -19.3410 os         1 ZEV      -0.528200
     30 C11         45.2150     2.7520   -17.9530 c5         1 ZEV       0.136100
     31 C14         44.4070     3.8010   -17.1780 c5         1 ZEV       0.230800
     32 O5          44.3220     3.2790   -15.8770 os         1 ZEV      -0.416600
     33 C12         44.6980     1.4730   -17.3290 c5         1 ZEV       0.153600
     34 F           43.4290     1.2010   -17.8330 f          1 ZEV      -0.246300
     35 C           45.8260     1.5430   -15.0500 c3         1 ZEV       0.186400
     36 N5          45.0240     5.0960   -17.1140 na         1 ZEV      -0.202900
     37 N6          46.5330     6.6620   -16.6430 nd         1 ZEV      -0.602000
     38 C16         45.5090     7.2040   -17.3770 cd         1 ZEV       0.170800
     39 C18         45.3170     8.5310   -17.8560 c          1 ZEV       0.679000
     40 O6          46.0350     9.5080   -17.7230 o          1 ZEV      -0.635500
     41 N7          44.1130     8.6260   -18.5690 ns         1 ZEV      -0.521400
     42 C19         43.2240     7.6130   -18.7850 cd         1 ZEV       0.720800
     43 N9          42.1350     7.8980   -19.5170 nv         1 ZEV      -0.944800
     44 N8          43.4110     6.3950   -18.3440 nc         1 ZEV      -0.673100
     45 H11         48.3860     5.5940   -19.1690 h5         1 ZEV       0.112800
     46 H12         53.9110     8.5480   -17.8600 h5         1 ZEV       0.022100
     47 H15         47.8190     1.5060   -18.9230 h1         1 ZEV       0.056700
     48 H16         48.5460     1.9770   -20.4580 h1         1 ZEV       0.056700
     49 H6          43.7430     1.3620   -15.3910 h1         1 ZEV       0.065700
     50 H           48.6050     3.8500   -17.2110 h1         1 ZEV       0.087700
     51 H3          50.2060     1.7290   -18.6990 h1         1 ZEV       0.064700
     52 H2          52.0360     4.5820   -18.7910 h2         1 ZEV       0.092700
     53 H13         50.4660    11.3530   -18.4450 hn         1 ZEV       0.442800
     54 H14         49.0800    10.3790   -18.7530 hn         1 ZEV       0.442800
     55 H1          51.5700     3.2830   -16.8800 h1         1 ZEV       0.073700
     56 H4          46.2570     2.8490   -17.6470 h1         1 ZEV       0.083700
     57 H7          43.4190     3.9480   -17.6280 h2         1 ZEV       0.103700
     58 H5          45.3270     0.6000   -17.5100 h1         1 ZEV       0.092700
     59 H9          45.7910     2.1040   -14.1110 h1         1 ZEV       0.050200
     60 H10         45.7980     0.4780   -14.7980 h1         1 ZEV       0.050200
     61 H8          43.9070     9.5400   -18.9520 hn         1 ZEV       0.300500
     62 H19         41.4110     7.2000   -19.5580 hn         1 ZEV       0.429300
     63 H18         41.8440     8.8480   -19.6740 hn         1 ZEV       0.429300
     64 O8          48.3830     3.5240   -14.4730 o          1 ZEV      -0.748500
     65 H17         46.7920     4.6840   -15.9510 h5         1 ZEV       0.091100
@<TRIPOS>BOND
     1     1     4 1   
     2     1     5 2   
     3     2     3 ar  
     4     2     7 ar  
     5     3     4 ar  
     6     3    20 1   
     7     4     6 ar  
     8     5    20 1   
     9     5    45 1   
    10     6    21 ar  
    11     6    22 1   
    12     7    21 ar  
    13     7    46 1   
    14     8    17 1   
    15     8    25 1   
    16     8    47 1   
    17     8    48 1   
    18     9    32 1   
    19     9    33 1   
    20     9    35 1   
    21     9    49 1   
    22    10    36 1   
    23    10    38 2   
    24    10    44 1   
    25    11    36 1   
    26    11    37 2   
    27    11    65 1   
    28    12    13 1   
    29    12    14 1   
    30    12    15 1   
    31    12    64 1   
    32    13    35 1   
    33    15    16 1   
    34    16    17 1   
    35    16    23 1   
    36    16    50 1   
    37    17    18 1   
    38    17    51 1   
    39    18    19 1   
    40    19    20 1   
    41    19    23 1   
    42    19    52 1   
    43    22    53 1   
    44    22    54 1   
    45    23    24 1   
    46    23    55 1   
    47    25    26 1   
    48    26    27 1   
    49    26    28 1   
    50    26    29 1   
    51    29    30 1   
    52    30    31 1   
    53    30    33 1   
    54    30    56 1   
    55    31    32 1   
    56    31    36 1   
    57    31    57 1   
    58    33    34 1   
    59    33    58 1   
    60    35    59 1   
    61    35    60 1   
    62    37    38 1   
    63    38    39 1   
    64    39    40 2   
    65    39    41 1   
    66    41    42 1   
    67    41    61 1   
    68    42    43 1   
    69    42    44 2   
    70    43    62 1   
    71    43    63 1   
@<TRIPOS>SUBSTRUCTURE
     1 ZEV         1 TEMP              0 ****  ****    0 ROOT
