@<TRIPOS>MOLECULE
ZEV
   65    71     1     0     0
SMALL
No Charge or Current Charge


@<TRIPOS>ATOM
      1 N1          50.6200     7.3170   -19.6870 nc         1 ZEV      -0.544100
      2 N3          53.2030     6.3600   -17.4160 nb         1 ZEV      -0.218000
      3 C4          52.1600     6.3710   -18.2710 ca         1 ZEV       0.112500
      4 C5          51.6920     7.5330   -18.8300 ca         1 ZEV      -0.071600
      5 C6          50.4740     5.9780   -19.6200 cd         1 ZEV       0.462700
      6 C7          52.3310     8.7430   -18.4810 ca         1 ZEV       0.436900
      7 C8          53.7530     7.5650   -17.1360 ca         1 ZEV       0.152900
      8 C10         48.4540     2.6650   -19.9890 c3         1 ZEV       0.217600
      9 C13         44.7950     2.2330   -15.9310 c5         1 ZEV       0.127300
     10 C15         43.3910     6.2860   -17.6100 cc         1 ZEV       0.173400
     11 C17         45.4680     6.0900   -16.8920 cc         1 ZEV       0.420400
     12 P           48.5310     2.5130   -15.1300 p5         1 ZEV       1.750300
     13 O           47.0330     1.9360   -14.9820 os         1 ZEV      -0.606400
     14 S           49.7820     1.4150   -14.0660 s          1 ZEV      -1.332000
     15 O1          48.7180     2.2530   -16.7150 os         1 ZEV      -0.559400
     16 C1          49.3960     3.2350   -17.5540 c5         1 ZEV       0.175300
     17 C9          49.6150     2.5830   -18.9610 c5         1 ZEV       0.149300
     18 O2          50.8230     3.1770   -19.5060 os         1 ZEV      -0.440000
     19 C3          51.5100     3.9110   -18.4710 c5         1 ZEV       0.292300
     20 N           51.3860     5.3450   -18.7510 na         1 ZEV      -0.296300
     21 N2          53.3650     8.7660   -17.6280 nb         1 ZEV      -0.327000
     22 N4          51.9450     9.9510   -18.9750 nv         1 ZEV      -1.069900
     23 C2          50.8910     3.3980   -17.1340 c5         1 ZEV       0.131300
     24 F1          51.0720     4.3180   -16.0970 f          1 ZEV      -0.220000
     25 O3          47.7310     3.8900   -19.7920 os         1 ZEV      -0.610400
     26 P1          46.2360     4.0310   -20.3700 p5         1 ZEV       1.753300
     27 S1          46.1710     3.5140   -22.2770 s          1 ZEV      -1.336000
     28 O7          45.6790     5.3840   -20.1060 o          1 ZEV      -0.726500
     29 O4          45.5490     2.9110   -19.4360 os         1 ZEV      -0.551400
     30 C11         45.5420     3.1270   -17.9990 c5         1 ZEV       0.159300
     31 C14         44.2700     3.9180   -17.5300 c5         1 ZEV       0.283300
     32 O5          43.8520     3.2820   -16.2900 os         1 ZEV      -0.463000
     33 C12         45.3170     1.7500   -17.3110 c5         1 ZEV       0.172300
     34 F           44.3390     0.9870   -17.9680 f          1 ZEV      -0.265000
     35 C           45.8800     2.7970   -14.9660 c3         1 ZEV       0.209600
     36 N5          44.3680     5.3670   -17.3230 na         1 ZEV      -0.181500
     37 N6          45.2150     7.3950   -16.8580 nd         1 ZEV      -0.602000
     38 C16         43.9090     7.5240   -17.3160 cd         1 ZEV       0.105500
     39 C18         43.0570     8.7320   -17.5230 c          1 ZEV       0.536500
     40 O6          43.3890     9.8900   -17.3050 o          1 ZEV      -0.560000
     41 N7          41.8180     8.4140   -18.0010 ns         1 ZEV      -0.454400
     42 C19         41.4230     7.1510   -18.2570 cd         1 ZEV       0.720800
     43 N9          40.1930     6.9880   -18.7120 nv         1 ZEV      -1.055200
     44 N8          42.1190     6.0520   -18.0960 nc         1 ZEV      -0.673100
     45 H11         49.7390     5.4070   -20.1740 h5         1 ZEV       0.112800
     46 H12         54.5940     7.5690   -16.4450 h5         1 ZEV       0.022100
     47 H15         47.8040     1.7940   -19.8340 h1         1 ZEV       0.056700
     48 H16         48.8660     2.6040   -21.0040 h1         1 ZEV       0.056700
     49 H6          44.2590     1.4290   -15.4090 h1         1 ZEV       0.065700
     50 H           48.8530     4.1890   -17.5850 h1         1 ZEV       0.087700
     51 H3          49.8350     1.5150   -18.8250 h1         1 ZEV       0.064700
     52 H2          52.5850     3.6950   -18.5030 h2         1 ZEV       0.092700
     53 H13         52.2460    10.7860   -18.4800 hn         1 ZEV       0.498000
     54 H14         51.0440     9.9950   -19.4450 hn         1 ZEV       0.498000
     55 H1          51.3410     2.4420   -16.8370 h1         1 ZEV       0.073700
     56 H4          46.4770     3.5920   -17.6620 h1         1 ZEV       0.083700
     57 H7          43.4760     3.7770   -18.2740 h2         1 ZEV       0.103700
     58 H5          46.2340     1.1500   -17.2460 h1         1 ZEV       0.092700
     59 H9          46.1320     3.8200   -15.2670 h1         1 ZEV       0.050200
     60 H10         45.4580     2.8500   -13.9540 h1         1 ZEV       0.050200
     61 H8          41.1940     9.1830   -18.1820 hn         1 ZEV       0.300500
     62 H19         39.8750     6.0260   -18.6940 hn         1 ZEV       0.484500
     63 H18         39.5030     7.6820   -18.4520 hn         1 ZEV       0.484500
     64 O8          48.5470     3.9600   -14.7860 o          1 ZEV      -0.748500
     65 H17         46.4050     5.6220   -16.6130 h5         1 ZEV       0.091100
@<TRIPOS>BOND
     1     1     4 1   
     2     1     5 2   
     3     2     3 ar  
     4     2     7 ar  
     5     3     4 ar  
     6     3    20 1   
     7     4     6 ar  
     8     5    20 1   
     9     5    45 1   
    10     6    21 ar  
    11     6    22 1   
    12     7    21 ar  
    13     7    46 1   
    14     8    17 1   
    15     8    25 1   
    16     8    47 1   
    17     8    48 1   
    18     9    32 1   
    19     9    33 1   
    20     9    35 1   
    21     9    49 1   
    22    10    36 1   
    23    10    38 2   
    24    10    44 1   
    25    11    36 1   
    26    11    37 2   
    27    11    65 1   
    28    12    13 1   
    29    12    14 1   
    30    12    15 1   
    31    12    64 1   
    32    13    35 1   
    33    15    16 1   
    34    16    17 1   
    35    16    23 1   
    36    16    50 1   
    37    17    18 1   
    38    17    51 1   
    39    18    19 1   
    40    19    20 1   
    41    19    23 1   
    42    19    52 1   
    43    22    53 1   
    44    22    54 1   
    45    23    24 1   
    46    23    55 1   
    47    25    26 1   
    48    26    27 1   
    49    26    28 1   
    50    26    29 1   
    51    29    30 1   
    52    30    31 1   
    53    30    33 1   
    54    30    56 1   
    55    31    32 1   
    56    31    36 1   
    57    31    57 1   
    58    33    34 1   
    59    33    58 1   
    60    35    59 1   
    61    35    60 1   
    62    37    38 1   
    63    38    39 1   
    64    39    40 2   
    65    39    41 1   
    66    41    42 1   
    67    41    61 1   
    68    42    43 1   
    69    42    44 2   
    70    43    62 1   
    71    43    63 1   
@<TRIPOS>SUBSTRUCTURE
     1 ZEV         1 TEMP              0 ****  ****    0 ROOT
