@<TRIPOS>MOLECULE
ZEX
   98    99     1     0     0
SMALL
No Charge or Current Charge


@<TRIPOS>ATOM
      1 C6          -6.4150    12.4900   109.4760 ce         1 ZEX      -0.082200
      2 C17         -8.7610    11.7450   110.0540 c3         1 ZEX      -0.082600
      3 C4          -5.8620    13.9840   111.4570 c6         1 ZEX      -0.076200
      4 C3          -6.9780    13.2620   112.2390 c6         1 ZEX       0.168300
      5 O3          -6.7880    13.4360   113.6470 oh         1 ZEX      -0.653000
      6 C2          -6.9600    11.7630   111.8820 c6         1 ZEX      -0.104400
      7 C1          -7.2480    11.5200   110.3690 c6         1 ZEX       0.005200
      8 C5          -5.8170    13.6120   109.9740 c2         1 ZEX      -0.097400
      9 C18         -4.9960    14.5980   109.1540 c3         1 ZEX      -0.055900
     10 C16         -6.9310    10.0240   110.0530 c3         1 ZEX      -0.082600
     11 O23        -12.6230    19.0900    85.1020 oh         1 ZEX      -0.652000
     12 C26        -12.9610    18.0650    88.4590 cf         1 ZEX      -0.071200
     13 C7          -6.4360    12.1790   108.0310 ce         1 ZEX      -0.163000
     14 C8          -6.8210    13.0510   107.0530 cf         1 ZEX      -0.183000
     15 C9          -6.8830    12.7990   105.6110 cf         1 ZEX      -0.063200
     16 C19         -6.1400    11.5780   105.0750 c3         1 ZEX      -0.055900
     17 C10         -7.5360    13.6790   104.7950 ce         1 ZEX      -0.179000
     18 C11         -7.6990    13.5890   103.3340 ce         1 ZEX      -0.172000
     19 C12         -8.3170    14.5430   102.5800 cf         1 ZEX      -0.174000
     20 C13         -8.5350    14.5270   101.1300 cf         1 ZEX      -0.064200
     21 C20         -7.7260    13.5280   100.3050 c3         1 ZEX      -0.055900
     22 C14         -9.3920    15.4260   100.5610 ce         1 ZEX      -0.175000
     23 C15         -9.7320    15.5570    99.1350 ce         1 ZEX      -0.174000
     24 C35        -10.5510    16.5180    98.6310 cf         1 ZEX      -0.168000
     25 C34        -10.8900    16.6490    97.2160 cf         1 ZEX      -0.180000
     26 C33        -11.7470    17.5480    96.6460 ce         1 ZEX      -0.059200
     27 C40        -12.5600    18.5490    97.4630 c3         1 ZEX      -0.055900
     28 C32        -11.9670    17.5300    95.1860 ce         1 ZEX      -0.181000
     29 C31        -12.5930    18.4790    94.4330 cf         1 ZEX      -0.165000
     30 C30        -12.7640    18.3900    92.9850 cf         1 ZEX      -0.188000
     31 C29        -13.3830    19.3110    92.1840 ce         1 ZEX      -0.058200
     32 C39        -13.9910    20.5840    92.7620 c3         1 ZEX      -0.055900
     33 C28        -13.5260    19.1560    90.7200 ce         1 ZEX      -0.188000
     34 C27        -12.8720    18.2610    89.9190 cf         1 ZEX      -0.155000
     35 C21        -14.2740    18.4030    87.6620 c6         1 ZEX       0.011200
     36 C36        -14.3910    19.9520    87.4580 c3         1 ZEX      -0.084100
     37 C37        -15.5390    17.9090    88.4370 c3         1 ZEX      -0.084100
     38 C22        -14.2730    17.6730    86.2720 c6         1 ZEX      -0.109400
     39 C23        -12.9320    17.7480    85.5000 c6         1 ZEX       0.179300
     40 C24        -11.8110    17.1120    86.3650 c6         1 ZEX      -0.020500
     41 C25        -11.8880    17.5050    87.8390 c2         1 ZEX      -0.189200
     42 C38        -10.3800    17.3510    85.8070 c3         1 ZEX      -0.076100
     43 H171        -8.9980    11.4890   109.0140 hc         1 ZEX       0.036033
     44 H172        -9.0550    12.7910   110.2000 hc         1 ZEX       0.036033
     45 H173        -9.4010    11.1280   110.6960 hc         1 ZEX       0.036033
     46 H41         -4.8850    13.7540   111.9030 hc         1 ZEX       0.051700
     47 H42         -6.0010    15.0690   111.5650 hc         1 ZEX       0.051700
     48 H3          -7.9480    13.6890   111.9400 h1         1 ZEX       0.078700
     49 HO3         -5.9360    13.0040   113.8700 ho         1 ZEX       0.435000
     50 H21         -7.6940    11.2240   112.4960 hc         1 ZEX       0.047700
     51 H22         -5.9770    11.3440   112.1430 hc         1 ZEX       0.047700
     52 H181        -4.1160    14.9420   109.7100 hc         1 ZEX       0.042700
     53 H182        -5.5910    15.4820   108.8930 hc         1 ZEX       0.042700
     54 H183        -4.6240    14.1540   108.2250 hc         1 ZEX       0.042700
     55 H161        -7.4350     9.3580   110.7630 hc         1 ZEX       0.036033
     56 H162        -5.8550     9.8230   110.1200 hc         1 ZEX       0.036033
     57 H163        -7.2670     9.7260   109.0540 hc         1 ZEX       0.036033
     58 H7          -6.1560    11.1660   107.7490 ha         1 ZEX       0.176000
     59 H8          -7.1500    14.0390   107.3790 ha         1 ZEX       0.174000
     60 H191        -6.7940    10.6990   105.0470 hc         1 ZEX       0.042033
     61 H192        -5.2660    11.3280   105.6870 hc         1 ZEX       0.042033
     62 H193        -5.7500    11.7390   104.0640 hc         1 ZEX       0.042033
     63 H10         -8.0090    14.5430   105.2640 ha         1 ZEX       0.169000
     64 H11         -7.3220    12.6920   102.8450 ha         1 ZEX       0.174000
     65 H12         -8.7130    15.4120   103.1100 ha         1 ZEX       0.170000
     66 H201        -8.2630    12.5790   100.1970 hc         1 ZEX       0.042033
     67 H202        -6.7520    13.3140   100.7590 hc         1 ZEX       0.042033
     68 H203        -7.5020    13.9040    99.3010 hc         1 ZEX       0.042033
     69 H14         -9.9020    16.1250   101.2260 ha         1 ZEX       0.169000
     70 H15         -9.3100    14.8290    98.4410 ha         1 ZEX       0.172000
     71 H35        -10.9710    17.2440    99.3290 ha         1 ZEX       0.172000
     72 H34        -10.3810    15.9510    96.5470 ha         1 ZEX       0.169000
     73 H401       -13.5420    18.7420    97.0160 hc         1 ZEX       0.042367
     74 H402       -12.0350    19.5070    97.5500 hc         1 ZEX       0.042367
     75 H403       -12.7680    18.1890    98.4770 hc         1 ZEX       0.042367
     76 H32        -11.5630    16.6630    94.6590 ha         1 ZEX       0.170000
     77 H31        -12.9830    19.3700    94.9270 ha         1 ZEX       0.173000
     78 H30        -12.3650    17.4860    92.5260 ha         1 ZEX       0.171000
     79 H391       -14.4200    21.2370    91.9940 hc         1 ZEX       0.042033
     80 H392       -13.2360    21.1740    93.2950 hc         1 ZEX       0.042033
     81 H393       -14.7940    20.3490    93.4710 hc         1 ZEX       0.042033
     82 H28        -14.2130    19.8550    90.2560 ha         1 ZEX       0.175000
     83 H27        -12.1420    17.6140    90.4020 ha         1 ZEX       0.165000
     84 H361       -15.0730    20.1950    86.6340 hc         1 ZEX       0.036200
     85 H362       -13.4200    20.4050    87.2290 hc         1 ZEX       0.036200
     86 H363       -14.7870    20.4740    88.3330 hc         1 ZEX       0.036200
     87 H371       -15.4580    16.8440    88.6860 hc         1 ZEX       0.036200
     88 H372       -16.4450    18.0340    87.8310 hc         1 ZEX       0.036200
     89 H373       -15.7140    18.4490    89.3720 hc         1 ZEX       0.036200
     90 H221       -15.0880    18.0510    85.6390 hc         1 ZEX       0.044700
     91 H222       -14.5020    16.6100    86.4280 hc         1 ZEX       0.044700
     92 H23        -13.0350    17.1340    84.5930 h1         1 ZEX       0.027700
     93 H24        -11.9590    16.0230    86.3240 hc         1 ZEX       0.053700
     94 H25        -11.0020    17.2630    88.4280 ha         1 ZEX       0.170000
     95 H381       -10.3130    17.0580    84.7520 hc         1 ZEX       0.038033
     96 H382        -9.6370    16.7640    86.3590 hc         1 ZEX       0.038033
     97 H383       -10.0890    18.4060    85.8820 hc         1 ZEX       0.038033
     98 H1         -13.3950    19.4140    84.5920 ho         1 ZEX       0.438000
@<TRIPOS>BOND
     1     1     7 1   
     2     1     8 2   
     3     1    13 1   
     4     2     7 1   
     5     2    43 1   
     6     2    44 1   
     7     2    45 1   
     8     3     4 1   
     9     3     8 1   
    10     3    46 1   
    11     3    47 1   
    12     4     5 1   
    13     4     6 1   
    14     4    48 1   
    15     5    49 1   
    16     6     7 1   
    17     6    50 1   
    18     6    51 1   
    19     7    10 1   
    20     8     9 1   
    21     9    52 1   
    22     9    53 1   
    23     9    54 1   
    24    10    55 1   
    25    10    56 1   
    26    10    57 1   
    27    11    39 1   
    28    11    98 1   
    29    12    34 1   
    30    12    35 1   
    31    12    41 2   
    32    13    14 2   
    33    13    58 1   
    34    14    15 1   
    35    14    59 1   
    36    15    16 1   
    37    15    17 2   
    38    16    60 1   
    39    16    61 1   
    40    16    62 1   
    41    17    18 1   
    42    17    63 1   
    43    18    19 2   
    44    18    64 1   
    45    19    20 1   
    46    19    65 1   
    47    20    21 1   
    48    20    22 2   
    49    21    66 1   
    50    21    67 1   
    51    21    68 1   
    52    22    23 1   
    53    22    69 1   
    54    23    24 2   
    55    23    70 1   
    56    24    25 1   
    57    24    71 1   
    58    25    26 2   
    59    25    72 1   
    60    26    27 1   
    61    26    28 1   
    62    27    73 1   
    63    27    74 1   
    64    27    75 1   
    65    28    29 2   
    66    28    76 1   
    67    29    30 1   
    68    29    77 1   
    69    30    31 2   
    70    30    78 1   
    71    31    32 1   
    72    31    33 1   
    73    32    79 1   
    74    32    80 1   
    75    32    81 1   
    76    33    34 2   
    77    33    82 1   
    78    34    83 1   
    79    35    36 1   
    80    35    37 1   
    81    35    38 1   
    82    36    84 1   
    83    36    85 1   
    84    36    86 1   
    85    37    87 1   
    86    37    88 1   
    87    37    89 1   
    88    38    39 1   
    89    38    90 1   
    90    38    91 1   
    91    39    40 1   
    92    39    92 1   
    93    40    41 1   
    94    40    42 1   
    95    40    93 1   
    96    41    94 1   
    97    42    95 1   
    98    42    96 1   
    99    42    97 1   
@<TRIPOS>SUBSTRUCTURE
     1 ZEX         1 TEMP              0 ****  ****    0 ROOT
