@<TRIPOS>MOLECULE
ZEX
   98    99     1     0     0
SMALL
abcg2


@<TRIPOS>ATOM
      1 C6          -6.5120    12.5750   109.2120 ce         1 ZEX      -0.082200
      2 C17         -8.7160    11.6470   109.9170 c3         1 ZEX      -0.082600
      3 C4          -5.9440    14.0940   111.1150 c6         1 ZEX      -0.076200
      4 C3          -6.9640    13.3340   111.9430 c6         1 ZEX       0.168300
      5 O3          -6.8200    13.5880   113.3270 oh         1 ZEX      -0.653000
      6 C2          -6.8620    11.8600   111.6050 c6         1 ZEX      -0.104400
      7 C1          -7.1980    11.5700   110.1370 c6         1 ZEX       0.005200
      8 C5          -5.9310    13.7000   109.6630 c2         1 ZEX      -0.097400
      9 C18         -5.1700    14.6680   108.8040 c3         1 ZEX      -0.055900
     10 C16         -6.7400    10.1380   109.8300 c3         1 ZEX      -0.082600
     11 O23        -12.1990    18.9930    85.6040 oh         1 ZEX      -0.652000
     12 C26        -12.9180    18.0400    88.7400 cf         1 ZEX      -0.071200
     13 C7          -6.5440    12.2340   107.7810 ce         1 ZEX      -0.163000
     14 C8          -7.0400    13.0310   106.8220 cf         1 ZEX      -0.183000
     15 C9          -7.0880    12.7220   105.4030 cf         1 ZEX      -0.063200
     16 C19         -6.4970    11.4260   104.9400 c3         1 ZEX      -0.055900
     17 C10         -7.6690    13.6260   104.5750 ce         1 ZEX      -0.179000
     18 C11         -7.8230    13.5310   103.1490 ce         1 ZEX      -0.172000
     19 C12         -8.4700    14.4730   102.4260 cf         1 ZEX      -0.174000
     20 C13         -8.6810    14.4460   100.9980 cf         1 ZEX      -0.064200
     21 C20         -8.1000    13.3090   100.2120 c3         1 ZEX      -0.055900
     22 C14         -9.4050    15.4540   100.4410 ce         1 ZEX      -0.175000
     23 C15         -9.7590    15.6140    99.0630 ce         1 ZEX      -0.174000
     24 C35        -10.5070    16.6510    98.6120 cf         1 ZEX      -0.168000
     25 C34        -10.8790    16.8010    97.2370 cf         1 ZEX      -0.180000
     26 C33        -11.6320    17.7910    96.6880 ce         1 ZEX      -0.059200
     27 C40        -12.2060    18.9320    97.4750 c3         1 ZEX      -0.055900
     28 C32        -11.9000    17.7330    95.2700 ce         1 ZEX      -0.181000
     29 C31        -12.6160    18.6350    94.5610 cf         1 ZEX      -0.165000
     30 C30        -12.8570    18.4930    93.1510 cf         1 ZEX      -0.188000
     31 C29        -13.5650    19.3300    92.3560 ce         1 ZEX      -0.058200
     32 C39        -14.2660    20.5620    92.8510 c3         1 ZEX      -0.055900
     33 C28        -13.7280    19.0720    90.9260 ce         1 ZEX      -0.188000
     34 C27        -12.8580    18.3940    90.1570 cf         1 ZEX      -0.155000
     35 C21        -14.1520    18.2650    87.8760 c6         1 ZEX       0.011200
     36 C36        -14.4080    19.7670    87.6770 c3         1 ZEX      -0.084100
     37 C37        -15.3960    17.6230    88.5120 c3         1 ZEX      -0.084100
     38 C22        -13.9740    17.5660    86.5120 c6         1 ZEX      -0.109400
     39 C23        -12.5940    17.6660    85.8820 c6         1 ZEX       0.179300
     40 C24        -11.5770    17.0390    86.8250 c6         1 ZEX      -0.020500
     41 C25        -11.8020    17.4820    88.2350 c2         1 ZEX      -0.189200
     42 C38        -10.1290    17.2670    86.3940 c3         1 ZEX      -0.076100
     43 H171        -8.9730    11.4220   108.8810 hc         1 ZEX       0.036033
     44 H172        -9.1110    12.6380   110.1430 hc         1 ZEX       0.036033
     45 H173        -9.2320    10.9250   110.5540 hc         1 ZEX       0.036033
     46 H41         -4.9390    13.9270   111.5300 hc         1 ZEX       0.051700
     47 H42         -6.1200    15.1720   111.1950 hc         1 ZEX       0.051700
     48 H3          -7.9640    13.6990   111.6910 h1         1 ZEX       0.078700
     49 HO3         -5.9510    13.2730   113.6000 ho         1 ZEX       0.435000
     50 H21         -7.5270    11.2740   112.2470 hc         1 ZEX       0.047700
     51 H22         -5.8380    11.5240   111.8130 hc         1 ZEX       0.047700
     52 H181        -4.2460    14.9610   109.3090 hc         1 ZEX       0.042700
     53 H182        -5.7370    15.5890   108.6440 hc         1 ZEX       0.042700
     54 H183        -4.9110    14.2660   107.8280 hc         1 ZEX       0.042700
     55 H161        -7.1480     9.4530   110.5760 hc         1 ZEX       0.036033
     56 H162        -5.6520    10.0510   109.8570 hc         1 ZEX       0.036033
     57 H163        -7.0830     9.7910   108.8540 hc         1 ZEX       0.036033
     58 H7          -6.1730    11.2510   107.5060 ha         1 ZEX       0.176000
     59 H8          -7.4580    13.9910   107.1130 ha         1 ZEX       0.174000
     60 H191        -6.9650    10.5800   105.4470 hc         1 ZEX       0.042033
     61 H192        -5.4300    11.3790   105.1710 hc         1 ZEX       0.042033
     62 H193        -6.6080    11.2660   103.8710 hc         1 ZEX       0.042033
     63 H10         -8.0720    14.5270   105.0290 ha         1 ZEX       0.169000
     64 H11         -7.4070    12.6680   102.6420 ha         1 ZEX       0.174000
     65 H12         -8.8860    15.3270   102.9540 ha         1 ZEX       0.170000
     66 H201        -8.5110    12.3520   100.5430 hc         1 ZEX       0.042033
     67 H202        -7.0190    13.2530   100.3520 hc         1 ZEX       0.042033
     68 H203        -8.2870    13.3920    99.1450 hc         1 ZEX       0.042033
     69 H14         -9.7740    16.2280   101.1100 ha         1 ZEX       0.169000
     70 H15         -9.4270    14.8720    98.3440 ha         1 ZEX       0.172000
     71 H35        -10.8400    17.3920    99.3310 ha         1 ZEX       0.172000
     72 H34        -10.5160    16.0250    96.5680 ha         1 ZEX       0.169000
     73 H401       -13.2920    18.9670    97.3720 hc         1 ZEX       0.042367
     74 H402       -11.8230    19.8890    97.1130 hc         1 ZEX       0.042367
     75 H403       -11.9820    18.8710    98.5360 hc         1 ZEX       0.042367
     76 H32        -11.4830    16.8800    94.7400 ha         1 ZEX       0.170000
     77 H31        -13.0310    19.4970    95.0700 ha         1 ZEX       0.173000
     78 H30        -12.4370    17.6000    92.6970 ha         1 ZEX       0.171000
     79 H391       -15.3270    20.5240    92.5920 hc         1 ZEX       0.042033
     80 H392       -13.8600    21.4550    92.3710 hc         1 ZEX       0.042033
     81 H393       -14.1970    20.7030    93.9270 hc         1 ZEX       0.042033
     82 H28        -14.6180    19.5090    90.4900 ha         1 ZEX       0.175000
     83 H27        -11.9430    18.0590    90.6390 ha         1 ZEX       0.165000
     84 H361       -15.2190    19.9180    86.9610 hc         1 ZEX       0.036200
     85 H362       -13.5260    20.2800    87.2980 hc         1 ZEX       0.036200
     86 H363       -14.7040    20.2580    88.6030 hc         1 ZEX       0.036200
     87 H371       -15.2140    16.5770    88.7650 hc         1 ZEX       0.036200
     88 H372       -16.2270    17.6520    87.8040 hc         1 ZEX       0.036200
     89 H373       -15.7240    18.1310    89.4160 hc         1 ZEX       0.036200
     90 H221       -14.7350    17.9430    85.8210 hc         1 ZEX       0.044700
     91 H222       -14.1840    16.4980    86.6330 hc         1 ZEX       0.044700
     92 H23        -12.6020    17.0770    84.9520 h1         1 ZEX       0.027700
     93 H24        -11.7540    15.9560    86.7880 hc         1 ZEX       0.053700
     94 H25        -10.9650    17.3250    88.9110 ha         1 ZEX       0.170000
     95 H381        -9.9740    16.9480    85.3620 hc         1 ZEX       0.038033
     96 H382        -9.4490    16.6880    87.0220 hc         1 ZEX       0.038033
     97 H383        -9.8410    18.3150    86.4710 hc         1 ZEX       0.038033
     98 H1         -12.8740    19.3940    85.0490 ho         1 ZEX       0.438000
@<TRIPOS>BOND
     1     1     7 1   
     2     1     8 2   
     3     1    13 1   
     4     2     7 1   
     5     2    43 1   
     6     2    44 1   
     7     2    45 1   
     8     3     4 1   
     9     3     8 1   
    10     3    46 1   
    11     3    47 1   
    12     4     5 1   
    13     4     6 1   
    14     4    48 1   
    15     5    49 1   
    16     6     7 1   
    17     6    50 1   
    18     6    51 1   
    19     7    10 1   
    20     8     9 1   
    21     9    52 1   
    22     9    53 1   
    23     9    54 1   
    24    10    55 1   
    25    10    56 1   
    26    10    57 1   
    27    11    39 1   
    28    11    98 1   
    29    12    34 1   
    30    12    35 1   
    31    12    41 2   
    32    13    14 2   
    33    13    58 1   
    34    14    15 1   
    35    14    59 1   
    36    15    16 1   
    37    15    17 2   
    38    16    60 1   
    39    16    61 1   
    40    16    62 1   
    41    17    18 1   
    42    17    63 1   
    43    18    19 2   
    44    18    64 1   
    45    19    20 1   
    46    19    65 1   
    47    20    21 1   
    48    20    22 2   
    49    21    66 1   
    50    21    67 1   
    51    21    68 1   
    52    22    23 1   
    53    22    69 1   
    54    23    24 2   
    55    23    70 1   
    56    24    25 1   
    57    24    71 1   
    58    25    26 2   
    59    25    72 1   
    60    26    27 1   
    61    26    28 1   
    62    27    73 1   
    63    27    74 1   
    64    27    75 1   
    65    28    29 2   
    66    28    76 1   
    67    29    30 1   
    68    29    77 1   
    69    30    31 2   
    70    30    78 1   
    71    31    32 1   
    72    31    33 1   
    73    32    79 1   
    74    32    80 1   
    75    32    81 1   
    76    33    34 2   
    77    33    82 1   
    78    34    83 1   
    79    35    36 1   
    80    35    37 1   
    81    35    38 1   
    82    36    84 1   
    83    36    85 1   
    84    36    86 1   
    85    37    87 1   
    86    37    88 1   
    87    37    89 1   
    88    38    39 1   
    89    38    90 1   
    90    38    91 1   
    91    39    40 1   
    92    39    92 1   
    93    40    41 1   
    94    40    42 1   
    95    40    93 1   
    96    41    94 1   
    97    42    95 1   
    98    42    96 1   
    99    42    97 1   
@<TRIPOS>SUBSTRUCTURE
     1 ZEX         1 TEMP              0 ****  ****    0 ROOT
