@<TRIPOS>MOLECULE
ZEZ
   29    30     1     0     0
SMALL
abcg2


@<TRIPOS>ATOM
      1 C15          4.7320    -1.5540     0.3990 c3         1 ZEZ      -0.058900
      2 C13          3.6280    -0.5740     0.1350 c2         1 ZEZ      -0.080400
      3 C14          3.7120     0.1440    -1.1820 c3         1 ZEZ       0.189800
      4 O16          4.9620     0.7960    -1.2720 oh         1 ZEZ      -0.655000
      5 C12          2.6340    -0.4040     1.0100 c2         1 ZEZ      -0.251200
      6 C11          1.4840     0.5490     0.8830 c3         1 ZEZ       0.266000
      7 N10          0.3240    -0.1420     0.3480 nu         1 ZEZ      -0.912100
      8 C1          -0.9190     0.3450     0.3870 ca         1 ZEZ       0.447900
      9 C6          -2.0120    -0.3440    -0.1760 ca         1 ZEZ      -0.102600
     10 N7          -2.1170    -1.5380    -0.8390 nc         1 ZEZ      -0.553100
     11 C8          -3.3860    -1.6400    -1.1150 cd         1 ZEZ       0.395700
     12 N9          -4.1170    -0.5820    -0.6710 na         1 ZEZ      -0.411300
     13 C5          -3.2510     0.2700    -0.0600 ca         1 ZEZ       0.123500
     14 N4          -3.5010     1.4400     0.5300 nb         1 ZEZ      -0.223000
     15 C3          -2.4020     1.9870     1.0170 ca         1 ZEZ       0.183900
     16 N2          -1.1550     1.5190     0.9780 nb         1 ZEZ      -0.301000
     17 H15          5.6980    -1.0520     0.4670 hc         1 ZEZ       0.047367
     18 H15A         4.5720    -2.1010     1.3270 hc         1 ZEZ       0.047367
     19 H15B         4.8130    -2.2790    -0.4150 hc         1 ZEZ       0.047367
     20 H14          3.6020    -0.6090    -1.9750 h1         1 ZEZ       0.028200
     21 H14A         2.8840     0.8500    -1.3090 h1         1 ZEZ       0.028200
     22 HO16         5.0800     1.0850    -2.1810 ho         1 ZEZ       0.444000
     23 H12          2.6270    -1.0230     1.9020 ha         1 ZEZ       0.181000
     24 H11          1.2330     0.9420     1.8700 h1         1 ZEZ       0.062200
     25 H11A         1.7380     1.4110     0.2630 h1         1 ZEZ       0.062200
     26 HN10         0.4790    -0.9920    -0.1700 hn         1 ZEZ       0.513000
     27 H8          -3.8480    -2.4630    -1.6400 h5         1 ZEZ       0.065800
     28 HN9         -5.1130    -0.4610    -0.7760 hn         1 ZEZ       0.369000
     29 H3          -2.5240     2.9440     1.5130 h5         1 ZEZ       0.046100
@<TRIPOS>BOND
     1     1     2 1   
     2     1    17 1   
     3     1    18 1   
     4     1    19 1   
     5     2     3 1   
     6     2     5 2   
     7     3     4 1   
     8     3    20 1   
     9     3    21 1   
    10     4    22 1   
    11     5     6 1   
    12     5    23 1   
    13     6     7 1   
    14     6    24 1   
    15     6    25 1   
    16     7     8 1   
    17     7    26 1   
    18     8     9 ar  
    19     8    16 ar  
    20     9    10 1   
    21     9    13 ar  
    22    10    11 2   
    23    11    12 1   
    24    11    27 1   
    25    12    13 1   
    26    12    28 1   
    27    13    14 ar  
    28    14    15 ar  
    29    15    16 ar  
    30    15    29 1   
@<TRIPOS>SUBSTRUCTURE
     1 ZEZ         1 TEMP              0 ****  ****    0 ROOT
