@<TRIPOS>MOLECULE
ZEZ
   29    30     1     0     0
SMALL
No Charge or Current Charge


@<TRIPOS>ATOM
      1 C15          4.6530    -1.7350     0.1770 c3         1 ZEZ      -0.058900
      2 C13          3.5370    -0.7060     0.1250 c2         1 ZEZ      -0.080400
      3 C14          3.4480     0.0110    -1.2160 c3         1 ZEZ       0.189800
      4 O16          4.1700     1.2470    -1.1600 oh         1 ZEZ      -0.655000
      5 C12          2.7240    -0.4640     1.1710 c2         1 ZEZ      -0.251200
      6 C11          1.5990     0.5400     1.2230 c3         1 ZEZ       0.266000
      7 N10          0.4010    -0.1060     0.6920 nu         1 ZEZ      -0.912100
      8 C1          -0.8610     0.4480     0.5210 ca         1 ZEZ       0.447900
      9 C6          -1.8940    -0.2790    -0.1100 ca         1 ZEZ      -0.102600
     10 N7          -1.8740    -1.5680    -0.6380 nc         1 ZEZ      -0.553100
     11 C8          -3.1310    -1.7060    -1.0970 cd         1 ZEZ       0.395700
     12 N9          -3.9300    -0.5740    -0.8830 na         1 ZEZ      -0.411300
     13 C5          -3.1170     0.3230    -0.2510 ca         1 ZEZ       0.123500
     14 N4          -3.3600     1.5720     0.1870 nb         1 ZEZ      -0.223000
     15 C3          -2.3170     2.2010     0.7800 ca         1 ZEZ       0.183900
     16 N2          -1.0740     1.7010     0.9700 nb         1 ZEZ      -0.301000
     17 H15          5.6270    -1.2700    -0.0130 hc         1 ZEZ       0.047367
     18 H15A         4.7080    -2.2260     1.1560 hc         1 ZEZ       0.047367
     19 H15B         4.5040    -2.5190    -0.5750 hc         1 ZEZ       0.047367
     20 H14          3.8560    -0.6290    -2.0110 h1         1 ZEZ       0.028200
     21 H14A         2.3950     0.1980    -1.4670 h1         1 ZEZ       0.028200
     22 HO16         4.0860     1.6640    -2.0460 ho         1 ZEZ       0.444000
     23 H12          2.8510    -1.0130     2.1040 ha         1 ZEZ       0.181000
     24 H11          1.4330     0.8630     2.2610 h1         1 ZEZ       0.062200
     25 H11A         1.8540     1.4320     0.6320 h1         1 ZEZ       0.062200
     26 HN10         0.4990    -1.0460     0.3110 hn         1 ZEZ       0.513000
     27 H8          -3.5290    -2.5870    -1.5890 h5         1 ZEZ       0.065800
     28 HN9         -4.9000    -0.4590    -1.1450 hn         1 ZEZ       0.369000
     29 H3          -2.4980     3.2120     1.1400 h5         1 ZEZ       0.046100
@<TRIPOS>BOND
     1     1     2 1   
     2     1    17 1   
     3     1    18 1   
     4     1    19 1   
     5     2     3 1   
     6     2     5 2   
     7     3     4 1   
     8     3    20 1   
     9     3    21 1   
    10     4    22 1   
    11     5     6 1   
    12     5    23 1   
    13     6     7 1   
    14     6    24 1   
    15     6    25 1   
    16     7     8 1   
    17     7    26 1   
    18     8     9 ar  
    19     8    16 ar  
    20     9    10 1   
    21     9    13 ar  
    22    10    11 2   
    23    11    12 1   
    24    11    27 1   
    25    12    13 1   
    26    12    28 1   
    27    13    14 ar  
    28    14    15 ar  
    29    15    16 ar  
    30    15    29 1   
@<TRIPOS>SUBSTRUCTURE
     1 ZEZ         1 TEMP              0 ****  ****    0 ROOT
