@<TRIPOS>MOLECULE
ZF0
   20    20     1     0     0
SMALL
abcg2


@<TRIPOS>ATOM
      1 N3           3.1820     0.0740    -0.3120 n8         1 ZF0      -1.000200
      2 C9           2.1580    -0.6290     0.4390 c3         1 ZF0       0.198100
      3 C10          0.7730    -0.1040     0.1520 ca         1 ZF0      -0.085300
      4 C11         -0.3240    -0.9560     0.2470 ca         1 ZF0      -0.113000
      5 C12         -1.6270    -0.5090     0.0340 ca         1 ZF0      -0.078300
      6 C13         -2.7890    -1.4500     0.1760 c3         1 ZF0      -0.044800
      7 C14         -1.8200     0.8290    -0.2990 ca         1 ZF0      -0.110000
      8 C15         -0.7350     1.6900    -0.4060 ca         1 ZF0      -0.113000
      9 C16          0.5550     1.2300    -0.1820 ca         1 ZF0      -0.090000
     10 HN3          4.0940    -0.2490    -0.0190 hn         1 ZF0       0.396500
     11 H9           2.1580    -1.7170     0.2820 h1         1 ZF0       0.033700
     12 H9A          2.3670    -0.4850     1.5040 h1         1 ZF0       0.033700
     13 H11         -0.1600    -2.0010     0.4900 ha         1 ZF0       0.105000
     14 H13         -3.0780    -1.5580     1.2230 hc         1 ZF0       0.040700
     15 H13A        -3.6640    -1.0930    -0.3670 hc         1 ZF0       0.040700
     16 H13B        -2.5450    -2.4460    -0.1940 hc         1 ZF0       0.040700
     17 H14         -2.8220     1.1980    -0.4830 ha         1 ZF0       0.109000
     18 H15         -0.8990     2.7280    -0.6700 ha         1 ZF0       0.111000
     19 H16          1.3970     1.9040    -0.2740 ha         1 ZF0       0.130000
     20 H2           3.1020    -0.1600    -1.2940 hn         1 ZF0       0.396500
@<TRIPOS>BOND
     1     1     2 1   
     2     1    10 1   
     3     1    20 1   
     4     2     3 1   
     5     2    11 1   
     6     2    12 1   
     7     3     4 ar  
     8     3     9 ar  
     9     4     5 ar  
    10     4    13 1   
    11     5     6 1   
    12     5     7 ar  
    13     6    14 1   
    14     6    15 1   
    15     6    16 1   
    16     7     8 ar  
    17     7    17 1   
    18     8     9 ar  
    19     8    18 1   
    20     9    19 1   
@<TRIPOS>SUBSTRUCTURE
     1 ZF0         1 TEMP              0 ****  ****    0 ROOT
