@<TRIPOS>MOLECULE
ZF0
   20    20     1     0     0
SMALL
No Charge or Current Charge


@<TRIPOS>ATOM
      1 N3           3.0070    -0.5020    -0.6870 n8         1 ZF0      -1.000200
      2 C9           2.2360    -0.3500     0.5600 c3         1 ZF0       0.198100
      3 C10          0.8000     0.0760     0.2830 ca         1 ZF0      -0.085300
      4 C11         -0.2290    -0.8840     0.2200 ca         1 ZF0      -0.113000
      5 C12         -1.5600    -0.4950    -0.0300 ca         1 ZF0      -0.078300
      6 C13         -2.6650    -1.5380    -0.0920 c3         1 ZF0      -0.044800
      7 C14         -1.8600     0.8680    -0.2140 ca         1 ZF0      -0.110000
      8 C15         -0.8380     1.8310    -0.1520 ca         1 ZF0      -0.113000
      9 C16          0.4880     1.4370     0.0940 ca         1 ZF0      -0.090000
     10 HN3          3.9350    -0.8810    -0.4600 hn         1 ZF0       0.396500
     11 H9           2.2420    -1.3080     1.0990 h1         1 ZF0       0.033700
     12 H9A          2.7310     0.3990     1.1940 h1         1 ZF0       0.033700
     13 H11          0.0050    -1.9360     0.3670 ha         1 ZF0       0.105000
     14 H13         -3.0890    -1.7170     0.9030 hc         1 ZF0       0.040700
     15 H13A        -3.4810    -1.2190    -0.7520 hc         1 ZF0       0.040700
     16 H13B        -2.2900    -2.4950    -0.4740 hc         1 ZF0       0.040700
     17 H14         -2.8840     1.1820    -0.4030 ha         1 ZF0       0.109000
     18 H15         -1.0740     2.8830    -0.2960 ha         1 ZF0       0.111000
     19 H16          1.2740     2.1870     0.1390 ha         1 ZF0       0.130000
     20 H2           2.5720    -1.2420    -1.2510 hn         1 ZF0       0.396500
@<TRIPOS>BOND
     1     1     2 1   
     2     1    10 1   
     3     1    20 1   
     4     2     3 1   
     5     2    11 1   
     6     2    12 1   
     7     3     4 ar  
     8     3     9 ar  
     9     4     5 ar  
    10     4    13 1   
    11     5     6 1   
    12     5     7 ar  
    13     6    14 1   
    14     6    15 1   
    15     6    16 1   
    16     7     8 ar  
    17     7    17 1   
    18     8     9 ar  
    19     8    18 1   
    20     9    19 1   
@<TRIPOS>SUBSTRUCTURE
     1 ZF0         1 TEMP              0 ****  ****    0 ROOT
