@<TRIPOS>MOLECULE
ZF1
   29    31     1     0     0
SMALL
abcg2


@<TRIPOS>ATOM
      1 O1          96.0740    17.2100    67.5090 oh         1 ZF1      -0.522100
      2 C1          95.0970    16.5820    68.1710 ca         1 ZF1       0.199100
      3 C2          95.2400    15.1960    68.3610 ca         1 ZF1      -0.180000
      4 C3          94.2740    14.4980    69.0400 ca         1 ZF1       0.010000
      5 C4          93.1360    15.1350    69.5550 ca         1 ZF1      -0.267600
      6 C5          93.0200    16.5070    69.3480 ca         1 ZF1       0.188100
      7 C6          93.9810    17.2400    68.6640 ca         1 ZF1      -0.253000
      8 O2          91.9550    17.1950    69.8110 os         1 ZF1      -0.207200
      9 C7          90.9970    16.5510    70.4830 cc         1 ZF1       0.033100
     10 C8          90.9960    15.2330    70.7610 cd         1 ZF1      -0.213400
     11 C9          92.1080    14.4040    70.2950 c          1 ZF1       0.602900
     12 O3          92.1820    13.2030    70.5110 o          1 ZF1      -0.535100
     13 C10         89.8950    14.6530    71.5510 ca         1 ZF1      -0.071800
     14 C11         89.1860    13.5380    71.0980 ca         1 ZF1      -0.051000
     15 C12         88.1310    13.0170    71.8230 ca         1 ZF1      -0.178500
     16 C13         87.7560    13.5980    73.0340 ca         1 ZF1       0.145100
     17 O4          86.7210    13.0480    73.6970 oh         1 ZF1      -0.532100
     18 C14         88.4570    14.7060    73.5020 ca         1 ZF1      -0.178500
     19 C15         89.5150    15.2170    72.7660 ca         1 ZF1      -0.051000
     20 H1O         95.8960    18.1560    67.4340 ho         1 ZF1       0.473000
     21 H21         96.1130    14.6920    67.9680 ha         1 ZF1       0.138000
     22 H31         94.3880    13.4320    69.1880 ha         1 ZF1       0.142000
     23 H61         93.8500    18.3080    68.5270 ha         1 ZF1       0.134000
     24 H71         90.2020    17.2220    70.7810 h4         1 ZF1       0.231000
     25 H111        89.4460    13.0780    70.1540 ha         1 ZF1       0.117500
     26 H121        87.5870    12.1570    71.4510 ha         1 ZF1       0.121500
     27 H4O         86.5470    13.5280    74.5160 ho         1 ZF1       0.465000
     28 H141        88.1860    15.1680    74.4450 ha         1 ZF1       0.121500
     29 H151        90.0600    16.0700    73.1540 ha         1 ZF1       0.117500
@<TRIPOS>BOND
     1     1     2 1   
     2     1    20 1   
     3     2     3 ar  
     4     2     7 ar  
     5     3     4 ar  
     6     3    21 1   
     7     4     5 ar  
     8     4    22 1   
     9     5     6 ar  
    10     5    11 1   
    11     6     7 ar  
    12     6     8 1   
    13     7    23 1   
    14     8     9 1   
    15     9    10 2   
    16     9    24 1   
    17    10    11 1   
    18    10    13 1   
    19    11    12 2   
    20    13    14 ar  
    21    13    19 ar  
    22    14    15 ar  
    23    14    25 1   
    24    15    16 ar  
    25    15    26 1   
    26    16    17 1   
    27    16    18 ar  
    28    17    27 1   
    29    18    19 ar  
    30    18    28 1   
    31    19    29 1   
@<TRIPOS>SUBSTRUCTURE
     1 ZF1         1 TEMP              0 ****  ****    0 ROOT
