@<TRIPOS>MOLECULE
ZF1
   29    31     1     0     0
SMALL
No Charge or Current Charge


@<TRIPOS>ATOM
      1 O1          96.1720    17.2520    67.5650 oh         1 ZF1      -0.522100
      2 C1          95.1730    16.5590    68.1780 ca         1 ZF1       0.199100
      3 C2          95.2420    15.1650    68.2570 ca         1 ZF1      -0.180000
      4 C3          94.2110    14.4470    68.8830 ca         1 ZF1       0.010000
      5 C4          93.1090    15.1360    69.4350 ca         1 ZF1      -0.267600
      6 C5          93.0460    16.5300    69.3650 ca         1 ZF1       0.188100
      7 C6          94.0780    17.2380    68.7260 ca         1 ZF1      -0.253000
      8 O2          91.9900    17.2760    69.8490 os         1 ZF1      -0.207200
      9 C7          91.0790    16.6470    70.6870 cc         1 ZF1       0.033100
     10 C8          90.9550    15.2590    70.7160 cd         1 ZF1      -0.213400
     11 C9          92.0090    14.4100    70.1000 c          1 ZF1       0.602900
     12 O3          92.0280    13.1870    70.1620 o          1 ZF1      -0.535100
     13 C10         89.8600    14.6530    71.5320 ca         1 ZF1      -0.071800
     14 C11         89.3060    13.3890    71.2130 ca         1 ZF1      -0.051000
     15 C12         88.2660    12.8400    71.9830 ca         1 ZF1      -0.178500
     16 C13         87.7560    13.5390    73.0820 ca         1 ZF1       0.145100
     17 O4          86.7490    12.9960    73.8210 oh         1 ZF1      -0.532100
     18 C14         88.2810    14.7950    73.4100 ca         1 ZF1      -0.178500
     19 C15         89.3190    15.3500    72.6410 ca         1 ZF1      -0.051000
     20 H1O         95.9520    18.2060    67.6060 ho         1 ZF1       0.473000
     21 H21         96.0920    14.6380    67.8310 ha         1 ZF1       0.138000
     22 H31         94.2740    13.3610    68.9350 ha         1 ZF1       0.142000
     23 H61         94.0150    18.3210    68.6620 ha         1 ZF1       0.134000
     24 H71         90.4070    17.3600    71.1510 h4         1 ZF1       0.231000
     25 H111        89.6430    12.8330    70.3430 ha         1 ZF1       0.117500
     26 H121        87.8510    11.8710    71.7170 ha         1 ZF1       0.121500
     27 H4O         86.5210    13.6220    74.5410 ho         1 ZF1       0.465000
     28 H141        87.8940    15.3480    74.2630 ha         1 ZF1       0.121500
     29 H151        89.7170    16.3140    72.9430 ha         1 ZF1       0.117500
@<TRIPOS>BOND
     1     1     2 1   
     2     1    20 1   
     3     2     3 ar  
     4     2     7 ar  
     5     3     4 ar  
     6     3    21 1   
     7     4     5 ar  
     8     4    22 1   
     9     5     6 ar  
    10     5    11 1   
    11     6     7 ar  
    12     6     8 1   
    13     7    23 1   
    14     8     9 1   
    15     9    10 2   
    16     9    24 1   
    17    10    11 1   
    18    10    13 1   
    19    11    12 2   
    20    13    14 ar  
    21    13    19 ar  
    22    14    15 ar  
    23    14    25 1   
    24    15    16 ar  
    25    15    26 1   
    26    16    17 1   
    27    16    18 ar  
    28    17    27 1   
    29    18    19 ar  
    30    18    28 1   
    31    19    29 1   
@<TRIPOS>SUBSTRUCTURE
     1 ZF1         1 TEMP              0 ****  ****    0 ROOT
