@<TRIPOS>MOLECULE
ZF7
   68    72     1     0     0
SMALL
bcc


@<TRIPOS>ATOM
      1 N1         -30.9270    28.9930   -12.9300 n3         1 ZF7      -0.701600
      2 C4         -27.7830    28.5820   -10.1870 ca         1 ZF7      -0.119000
      3 C5         -28.8060    28.9710   -11.0000 ca         1 ZF7      -0.092000
      4 C6         -28.5690    29.1540   -12.3790 ca         1 ZF7      -0.031300
      5 C7         -29.6780    29.6520   -13.2820 c3         1 ZF7       0.223800
      6 C8         -29.7830    31.1700   -13.1180 c3         1 ZF7      -0.086100
      7 C10        -31.1850    27.3750   -14.6670 c5         1 ZF7      -0.105900
      8 C13        -33.0290    27.9640   -11.7900 c6         1 ZF7      -0.178700
      9 C15        -33.3700    28.9360   -12.9170 c6         1 ZF7      -0.037900
     10 C17        -27.3150    28.9420   -12.8940 ca         1 ZF7      -0.153000
     11 C21        -23.8560    28.0600   -11.6670 ca         1 ZF7       0.205100
     12 C22        -21.5060    27.5950   -11.2900 c6         1 ZF7       0.161100
     13 C24        -21.1750    25.3950   -12.4960 c6         1 ZF7      -0.068900
     14 C26        -19.5320    25.2240   -14.3950 c3         1 ZF7       0.662900
     15 C28        -20.2460    28.1220   -11.9560 c6         1 ZF7      -0.084900
     16 C1         -24.1620    27.8410   -10.3000 ca         1 ZF7      -0.240000
     17 C11        -31.9650    28.6450   -15.0450 c5         1 ZF7      -0.105900
     18 C12        -32.0280    26.9160   -12.2760 c6         1 ZF7      -0.037900
     19 C14        -34.2640    27.3490   -11.1010 c          1 ZF7       0.928600
     20 C16        -32.1110    29.3840   -13.6990 c5         1 ZF7       0.158500
     21 C18        -26.2160    28.5610   -12.0790 ca         1 ZF7       0.042000
     22 C19        -24.8780    28.3720   -12.5580 ca         1 ZF7      -0.243300
     23 C2         -25.4320    27.9950    -9.8410 ca         1 ZF7      -0.039000
     24 C23        -21.4610    26.0780   -11.1630 c6         1 ZF7      -0.084900
     25 C25        -19.8730    25.9260   -13.1030 c6         1 ZF7      -0.128700
     26 C27        -19.9400    27.4440   -13.2860 c6         1 ZF7      -0.068900
     27 C3         -26.4830    28.3760   -10.6980 ca         1 ZF7      -0.083000
     28 C9         -30.9220    27.5440   -13.1530 c5         1 ZF7       0.158500
     29 F1         -23.3960    28.3060   -14.4480 f          1 ZF7      -0.239633
     30 F2         -24.9100    29.8140   -14.4220 f          1 ZF7      -0.239633
     31 F3         -25.4300    27.7490   -14.7590 f          1 ZF7      -0.239633
     32 F4         -19.3930    23.8990   -14.2310 f          1 ZF7      -0.240300
     33 F5         -20.4710    25.3930   -15.3420 f          1 ZF7      -0.240300
     34 F6         -18.3780    25.6610   -14.9240 f          1 ZF7      -0.240300
     35 O1         -35.3520    27.9500   -11.2290 o          1 ZF7      -0.844300
     36 O2         -34.0720    26.3100   -10.4330 o          1 ZF7      -0.844300
     37 O3         -22.6000    28.0040   -12.1180 os         1 ZF7      -0.324900
     38 H2         -27.9490    28.4320    -9.1270 ha         1 ZF7       0.132000
     39 H3         -29.8000    29.1290   -10.6020 ha         1 ZF7       0.174000
     40 H4         -29.3660    29.4550   -14.3220 h1         1 ZF7       0.023700
     41 H5         -28.8030    31.6280   -13.2480 hc         1 ZF7       0.036700
     42 H6         -30.4480    31.6180   -13.8560 hc         1 ZF7       0.036700
     43 H7         -30.1530    31.4250   -12.1240 hc         1 ZF7       0.036700
     44 H8         -31.7290    26.4550   -14.8850 hc         1 ZF7       0.034700
     45 H9         -30.2430    27.3200   -15.2170 hc         1 ZF7       0.034700
     46 H10        -32.5160    28.5470   -11.0150 hc         1 ZF7       0.035700
     47 H11        -33.8760    29.8110   -12.5050 hc         1 ZF7       0.042700
     48 H12        -34.0830    28.4750   -13.6060 hc         1 ZF7       0.042700
     49 H13        -27.2030    29.0930   -13.9570 ha         1 ZF7       0.140000
     50 H14        -21.5870    28.0590   -10.3020 h1         1 ZF7       0.048700
     51 H15        -22.0070    25.5640   -13.1850 hc         1 ZF7       0.066200
     52 H16        -21.1150    24.3180   -12.3320 hc         1 ZF7       0.066200
     53 H17        -19.4190    27.9510   -11.2620 hc         1 ZF7       0.053700
     54 H18        -20.3210    29.2030   -12.0890 hc         1 ZF7       0.053700
     55 H19        -23.3890    27.5600    -9.6010 ha         1 ZF7       0.130000
     56 H20        -31.4000    29.2520   -15.7570 hc         1 ZF7       0.034700
     57 H21        -32.9310    28.4370   -15.5070 hc         1 ZF7       0.034700
     58 H22        -32.5430    26.1360   -12.8450 hc         1 ZF7       0.042700
     59 H23        -31.5810    26.4160   -11.4160 hc         1 ZF7       0.042700
     60 H24        -32.1460    30.4630   -13.8400 h1         1 ZF7       0.042700
     61 H25        -25.6430    27.8330    -8.7910 ha         1 ZF7       0.132000
     62 H26        -22.3900    25.6930   -10.7390 hc         1 ZF7       0.053700
     63 H27        -20.6730    25.8310   -10.4450 hc         1 ZF7       0.053700
     64 H28        -19.0550    25.7000   -12.4080 hc         1 ZF7       0.070700
     65 H29        -18.9930    27.8300   -13.6650 hc         1 ZF7       0.066200
     66 H30        -20.7040    27.7010   -14.0220 hc         1 ZF7       0.066200
     67 H31        -29.9560    27.1190   -12.8760 h1         1 ZF7       0.042700
     68 C20        -24.6340    28.5560   -14.0280 c3         1 ZF7       0.730200
@<TRIPOS>BOND
     1     1     5 1   
     2     1    20 1   
     3     1    28 1   
     4     2     3 ar  
     5     2    27 ar  
     6     2    38 1   
     7     3     4 ar  
     8     3    39 1   
     9     4     5 1   
    10     4    10 ar  
    11     5     6 1   
    12     5    40 1   
    13     6    41 1   
    14     6    42 1   
    15     6    43 1   
    16     7    17 1   
    17     7    28 1   
    18     7    44 1   
    19     7    45 1   
    20     8     9 1   
    21     8    18 1   
    22     8    19 1   
    23     8    46 1   
    24     9    20 1   
    25     9    47 1   
    26     9    48 1   
    27    10    21 ar  
    28    10    49 1   
    29    11    16 ar  
    30    11    22 ar  
    31    11    37 1   
    32    12    15 1   
    33    12    24 1   
    34    12    37 1   
    35    12    50 1   
    36    13    24 1   
    37    13    25 1   
    38    13    51 1   
    39    13    52 1   
    40    14    25 1   
    41    14    32 1   
    42    14    33 1   
    43    14    34 1   
    44    15    26 1   
    45    15    53 1   
    46    15    54 1   
    47    16    23 ar  
    48    16    55 1   
    49    17    20 1   
    50    17    56 1   
    51    17    57 1   
    52    18    28 1   
    53    18    58 1   
    54    18    59 1   
    55    19    35 1   
    56    19    36 1   
    57    20    60 1   
    58    21    22 ar  
    59    21    27 ar  
    60    22    68 1   
    61    23    27 ar  
    62    23    61 1   
    63    24    62 1   
    64    24    63 1   
    65    25    26 1   
    66    25    64 1   
    67    26    65 1   
    68    26    66 1   
    69    28    67 1   
    70    29    68 1   
    71    30    68 1   
    72    31    68 1   
@<TRIPOS>SUBSTRUCTURE
     1 ZF7         1 TEMP              0 ****  ****    0 ROOT
