@<TRIPOS>MOLECULE
ZF7
   68    72     1     0     0
SMALL
No Charge or Current Charge


@<TRIPOS>ATOM
      1 N1         -31.1360    28.8190   -12.7920 n3         1 ZF7      -0.701600
      2 C4         -27.5160    28.9810   -10.0300 ca         1 ZF7      -0.101000
      3 C5         -28.5450    29.3210   -10.9190 ca         1 ZF7      -0.074000
      4 C6         -28.2640    29.5340   -12.2800 ca         1 ZF7      -0.031300
      5 C7         -29.3930    29.8970   -13.2390 c3         1 ZF7       0.223800
      6 C8         -29.6590    31.4110   -13.2330 c3         1 ZF7      -0.086100
      7 C10        -30.7980    27.1170   -14.3670 c5         1 ZF7      -0.105900
      8 C13        -33.3090    27.6260   -11.9270 c6         1 ZF7      -0.178700
      9 C15        -33.5550    28.4970   -13.1840 c6         1 ZF7      -0.037900
     10 C17        -26.9420    29.4070   -12.7550 ca         1 ZF7      -0.135000
     11 C21        -23.5290    28.5570   -11.3690 ca         1 ZF7       0.205100
     12 C22        -21.3260    27.4460   -11.1360 c6         1 ZF7       0.184300
     13 C24        -21.8790    25.5580   -12.7900 c6         1 ZF7      -0.068900
     14 C26        -20.4610    25.2240   -14.9340 c3         1 ZF7       0.299000
     15 C28        -19.9160    27.5600   -11.7680 c6         1 ZF7      -0.084900
     16 C1         -23.8760    28.3660   -10.0170 ca         1 ZF7      -0.222000
     17 C11        -31.6720    28.2460   -15.0010 c5         1 ZF7      -0.105900
     18 C12        -32.1300    26.6470   -12.1500 c6         1 ZF7      -0.037900
     19 C14        -34.5920    26.8980   -11.4610 c          1 ZF7       0.718000
     20 C16        -32.2230    29.0400   -13.7770 c5         1 ZF7       0.158500
     21 C18        -25.8790    29.0660   -11.8740 ca         1 ZF7       0.042000
     22 C19        -24.5240    28.9300   -12.3220 ca         1 ZF7      -0.243300
     23 C2         -25.1960    28.5110    -9.5900 ca         1 ZF7      -0.021000
     24 C23        -21.8580    25.9940   -11.3030 c6         1 ZF7      -0.084900
     25 C25        -20.4660    25.6770   -13.4390 c6         1 ZF7      -0.128700
     26 C27        -19.9040    27.1210   -13.2570 c6         1 ZF7      -0.068900
     27 C3         -26.1960    28.8530   -10.5050 ca         1 ZF7      -0.083000
     28 C9         -30.9210    27.3500   -12.8310 c5         1 ZF7       0.158500
     29 F1         -22.8680    29.0460   -14.1450 f          1 ZF7      -0.118333
     30 F2         -24.5230    30.4130   -14.2150 f          1 ZF7      -0.118333
     31 F3         -24.8270    28.2940   -14.6200 f          1 ZF7      -0.118333
     32 F4         -20.8900    23.9480   -15.0690 f          1 ZF7      -0.119000
     33 F5         -21.2610    26.0000   -15.7010 f          1 ZF7      -0.119000
     34 F6         -19.2180    25.2790   -15.4670 f          1 ZF7      -0.119000
     35 O1         -35.1080    26.0810   -12.2110 o          1 ZF7      -0.739000
     36 O2         -35.0390    27.1710   -10.3570 o          1 ZF7      -0.739000
     37 O3         -22.2120    28.4060   -11.7610 os         1 ZF7      -0.348100
     38 H2         -27.7470    28.8170    -8.9800 ha         1 ZF7       0.114000
     39 H3         -29.5660    29.4170   -10.5550 ha         1 ZF7       0.156000
     40 H4         -29.0730    29.6260   -14.2530 h1         1 ZF7       0.023700
     41 H5         -28.7460    31.9630   -13.4880 hc         1 ZF7       0.036700
     42 H6         -30.4310    31.6650   -13.9670 hc         1 ZF7       0.036700
     43 H7         -29.9990    31.7380   -12.2440 hc         1 ZF7       0.036700
     44 H8         -31.1300    26.1160   -14.6660 hc         1 ZF7       0.034700
     45 H9         -29.7560    27.2080   -14.6920 hc         1 ZF7       0.034700
     46 H10        -33.0310    28.3010   -11.1050 hc         1 ZF7       0.035700
     47 H11        -34.2030    29.3410   -12.9130 hc         1 ZF7       0.042700
     48 H12        -34.1020    27.9300   -13.9500 hc         1 ZF7       0.042700
     49 H13        -26.7760    29.5770   -13.8120 ha         1 ZF7       0.122000
     50 H14        -21.2310    27.6850   -10.0690 h1         1 ZF7       0.048700
     51 H15        -22.6030    26.1730   -13.3440 hc         1 ZF7       0.066200
     52 H16        -22.2410    24.5230   -12.8570 hc         1 ZF7       0.066200
     53 H17        -19.2100    26.9410   -11.1970 hc         1 ZF7       0.053700
     54 H18        -19.5560    28.5940   -11.6820 hc         1 ZF7       0.053700
     55 H19        -23.1280    28.1130    -9.2740 ha         1 ZF7       0.112000
     56 H20        -31.0610    28.8930   -15.6400 hc         1 ZF7       0.034700
     57 H21        -32.4720    27.8480   -15.6350 hc         1 ZF7       0.034700
     58 H22        -32.4480    25.7840   -12.7500 hc         1 ZF7       0.042700
     59 H23        -31.8140    26.2410   -11.1790 hc         1 ZF7       0.042700
     60 H24        -32.3590    30.1030   -14.0220 h1         1 ZF7       0.042700
     61 H25        -25.4430    28.3570    -8.5420 ha         1 ZF7       0.114000
     62 H26        -22.8630    25.9000   -10.8720 hc         1 ZF7       0.053700
     63 H27        -21.2200    25.3080   -10.7290 hc         1 ZF7       0.053700
     64 H28        -19.7920    24.9830   -12.9170 hc         1 ZF7       0.070700
     65 H29        -18.8760    27.1790   -13.6400 hc         1 ZF7       0.066200
     66 H30        -20.4920    27.8320   -13.8530 hc         1 ZF7       0.066200
     67 H31        -30.0020    27.0480   -12.3100 h1         1 ZF7       0.042700
     68 C20        -24.1730    29.1670   -13.8180 c3         1 ZF7       0.366300
@<TRIPOS>BOND
     1     1     5 1   
     2     1    20 1   
     3     1    28 1   
     4     2     3 ar  
     5     2    27 ar  
     6     2    38 1   
     7     3     4 ar  
     8     3    39 1   
     9     4     5 1   
    10     4    10 ar  
    11     5     6 1   
    12     5    40 1   
    13     6    41 1   
    14     6    42 1   
    15     6    43 1   
    16     7    17 1   
    17     7    28 1   
    18     7    44 1   
    19     7    45 1   
    20     8     9 1   
    21     8    18 1   
    22     8    19 1   
    23     8    46 1   
    24     9    20 1   
    25     9    47 1   
    26     9    48 1   
    27    10    21 ar  
    28    10    49 1   
    29    11    16 ar  
    30    11    22 ar  
    31    11    37 1   
    32    12    15 1   
    33    12    24 1   
    34    12    37 1   
    35    12    50 1   
    36    13    24 1   
    37    13    25 1   
    38    13    51 1   
    39    13    52 1   
    40    14    25 1   
    41    14    32 1   
    42    14    33 1   
    43    14    34 1   
    44    15    26 1   
    45    15    53 1   
    46    15    54 1   
    47    16    23 ar  
    48    16    55 1   
    49    17    20 1   
    50    17    56 1   
    51    17    57 1   
    52    18    28 1   
    53    18    58 1   
    54    18    59 1   
    55    19    35 1   
    56    19    36 1   
    57    20    60 1   
    58    21    22 ar  
    59    21    27 ar  
    60    22    68 1   
    61    23    27 ar  
    62    23    61 1   
    63    24    62 1   
    64    24    63 1   
    65    25    26 1   
    66    25    64 1   
    67    26    65 1   
    68    26    66 1   
    69    28    67 1   
    70    29    68 1   
    71    30    68 1   
    72    31    68 1   
@<TRIPOS>SUBSTRUCTURE
     1 ZF7         1 TEMP              0 ****  ****    0 ROOT
