@<TRIPOS>MOLECULE
ZFB
   42    43     1     0     0
SMALL
No Charge or Current Charge


@<TRIPOS>ATOM
      1 N1           0.9330    -0.5880    -0.2590 ns         1 ZFB      -0.489900
      2 C1           0.0980    -0.2580     0.7710 c          1 ZFB       0.649100
      3 O1           0.4540    -0.0190     1.9140 o          1 ZFB      -0.597000
      4 O2          -1.1840    -0.2880     0.3250 os         1 ZFB      -0.425100
      5 C2          -2.2190     0.0460     1.2620 c3         1 ZFB       0.233900
      6 C3          -3.5560    -0.0110     0.5360 ca         1 ZFB      -0.122300
      7 C4          -4.3510    -1.1730     0.5970 ca         1 ZFB      -0.080500
      8 C5          -5.5850    -1.2230    -0.0750 ca         1 ZFB      -0.111000
      9 C6          -6.0320    -0.1130    -0.8120 ca         1 ZFB      -0.083000
     10 C7          -5.2410     1.0480    -0.8780 ca         1 ZFB      -0.111000
     11 C8          -4.0070     1.0980    -0.2070 ca         1 ZFB      -0.080500
     12 C9           2.4100    -0.5000    -0.2080 c3         1 ZFB       0.064700
     13 C10          3.0460    -1.8140    -0.7490 c          1 ZFB       0.577100
     14 O3           3.6250    -1.8620    -1.8320 o          1 ZFB      -0.436100
     15 C11          2.8960    -3.0410     0.1630 c3         1 ZFB       0.104100
     16 N2           3.4240    -4.2310    -0.4520 n1         1 ZFB      -0.058500
     17 N3           3.8420    -5.1720    -0.9390 n1         1 ZFB       0.375000
     18 C12          2.9070     0.7790    -0.9370 c3         1 ZFB      -0.034100
     19 C13          2.2850     2.0560    -0.3780 ca         1 ZFB      -0.121300
     20 C14          2.7750     2.6170     0.8180 ca         1 ZFB      -0.103500
     21 C15          2.1930     3.7830     1.3450 ca         1 ZFB      -0.096000
     22 C16          1.1170     4.3950     0.6800 ca         1 ZFB      -0.084000
     23 C17          0.6240     3.8400    -0.5130 ca         1 ZFB      -0.096000
     24 C18          1.2060     2.6750    -1.0410 ca         1 ZFB      -0.103500
     25 HN1          0.4720    -0.7430    -1.1490 hn         1 ZFB       0.368500
     26 H21         -2.2230    -0.6570     2.1060 h1         1 ZFB       0.060700
     27 H22         -2.0660     1.0570     1.6650 h1         1 ZFB       0.060700
     28 H4          -4.0130    -2.0390     1.1630 ha         1 ZFB       0.113500
     29 H5          -6.1960    -2.1220    -0.0240 ha         1 ZFB       0.123000
     30 H6          -6.9870    -0.1520    -1.3320 ha         1 ZFB       0.124000
     31 H7          -5.5840     1.9070    -1.4500 ha         1 ZFB       0.123000
     32 H8          -3.4000     1.9990    -0.2650 ha         1 ZFB       0.113500
     33 H9           2.7180    -0.4210     0.8440 h1         1 ZFB       0.072700
     34 H111         3.4290    -2.8450     1.1000 h1         1 ZFB       0.164200
     35 H112         1.8330    -3.1850     0.3820 h1         1 ZFB       0.164200
     36 H121         4.0000     0.8360    -0.8590 hc         1 ZFB       0.066700
     37 H122         2.6860     0.6950    -2.0090 hc         1 ZFB       0.066700
     38 H14          3.6050     2.1470     1.3420 ha         1 ZFB       0.109500
     39 H15          2.5750     4.2110     2.2700 ha         1 ZFB       0.128500
     40 H16          0.6660     5.2970     1.0890 ha         1 ZFB       0.131000
     41 H17         -0.2100     4.3120    -1.0280 ha         1 ZFB       0.128500
     42 H18          0.8130     2.2510    -1.9620 ha         1 ZFB       0.109500
@<TRIPOS>BOND
     1     1     2 1   
     2     1    12 1   
     3     1    25 1   
     4     2     3 2   
     5     2     4 1   
     6     4     5 1   
     7     5     6 1   
     8     5    26 1   
     9     5    27 1   
    10     6     7 ar  
    11     6    11 ar  
    12     7     8 ar  
    13     7    28 1   
    14     8     9 ar  
    15     8    29 1   
    16     9    10 ar  
    17     9    30 1   
    18    10    11 ar  
    19    10    31 1   
    20    11    32 1   
    21    12    13 1   
    22    12    18 1   
    23    12    33 1   
    24    13    14 2   
    25    13    15 1   
    26    15    16 1   
    27    15    34 1   
    28    15    35 1   
    29    16    17 3   
    30    18    19 1   
    31    18    36 1   
    32    18    37 1   
    33    19    20 ar  
    34    19    24 ar  
    35    20    21 ar  
    36    20    38 1   
    37    21    22 ar  
    38    21    39 1   
    39    22    23 ar  
    40    22    40 1   
    41    23    24 ar  
    42    23    41 1   
    43    24    42 1   
@<TRIPOS>SUBSTRUCTURE
     1 ZFB         1 TEMP              0 ****  ****    0 ROOT
