@<TRIPOS>MOLECULE
ZFB
   42    43     1     0     0
SMALL
abcg2


@<TRIPOS>ATOM
      1 N1           0.5970    -0.0810    -0.1990 ns         1 ZFB      -0.489900
      2 C1          -0.2770    -0.8260     0.5090 c          1 ZFB       0.649100
      3 O1           0.0820    -1.7120     1.2630 o          1 ZFB      -0.597000
      4 O2          -1.5340    -0.4900     0.2690 os         1 ZFB      -0.425100
      5 C2          -2.5550    -1.2380     0.9540 c3         1 ZFB       0.233900
      6 C3          -3.8730    -0.7150     0.4750 ca         1 ZFB      -0.122300
      7 C4          -4.4850    -1.2690    -0.6460 ca         1 ZFB      -0.080500
      8 C5          -5.6950    -0.7700    -1.1070 ca         1 ZFB      -0.111000
      9 C6          -6.3040     0.2910    -0.4490 ca         1 ZFB      -0.083000
     10 C7          -5.7010     0.8500     0.6700 ca         1 ZFB      -0.111000
     11 C8          -4.4900     0.3480     1.1280 ca         1 ZFB      -0.080500
     12 C9           1.9950    -0.2450     0.0670 c3         1 ZFB       0.064700
     13 C10          2.3800    -1.6960    -0.1670 c          1 ZFB       0.577100
     14 O3           2.0810    -2.3500    -1.1190 o          1 ZFB      -0.436100
     15 C11          3.2680    -2.2600     0.9500 c3         1 ZFB       0.104100
     16 N2           3.6830    -3.5670     0.5810 n1         1 ZFB      -0.058500
     17 N3           3.9660    -4.5590     0.2390 n1         1 ZFB       0.375000
     18 C12          2.8450     0.6380    -0.8600 c3         1 ZFB      -0.034100
     19 C13          2.5530     2.0990    -0.6470 ca         1 ZFB      -0.121300
     20 C14          3.0490     2.7600     0.4750 ca         1 ZFB      -0.103500
     21 C15          2.7590     4.0990     0.6900 ca         1 ZFB      -0.096000
     22 C16          1.9660     4.7960    -0.2150 ca         1 ZFB      -0.084000
     23 C17          1.4700     4.1460    -1.3360 ca         1 ZFB      -0.096000
     24 C18          1.7640     2.8050    -1.5500 ca         1 ZFB      -0.103500
     25 HN1          0.2770     0.7000    -0.7520 hn         1 ZFB       0.368500
     26 H21         -2.4490    -2.3000     0.7290 h1         1 ZFB       0.060700
     27 H22         -2.4480    -1.1020     2.0320 h1         1 ZFB       0.060700
     28 H4          -4.0150    -2.0990    -1.1610 ha         1 ZFB       0.113500
     29 H5          -6.1650    -1.2110    -1.9760 ha         1 ZFB       0.123000
     30 H6          -7.2500     0.6790    -0.8050 ha         1 ZFB       0.124000
     31 H7          -6.1750     1.6720     1.1900 ha         1 ZFB       0.123000
     32 H8          -4.0240     0.7830     2.0040 ha         1 ZFB       0.113500
     33 H9           2.2270     0.0170     1.1070 h1         1 ZFB       0.072700
     34 H111         4.1800    -1.6840     1.1210 h1         1 ZFB       0.164200
     35 H112         2.7180    -2.3620     1.8880 h1         1 ZFB       0.164200
     36 H121         3.9000     0.4370    -0.6580 hc         1 ZFB       0.066700
     37 H122         2.6560     0.3530    -1.8970 hc         1 ZFB       0.066700
     38 H14          3.6730     2.2270     1.1830 ha         1 ZFB       0.109500
     39 H15          3.1560     4.6010     1.5620 ha         1 ZFB       0.128500
     40 H16          1.7380     5.8400    -0.0460 ha         1 ZFB       0.131000
     41 H17          0.8560     4.6820    -2.0480 ha         1 ZFB       0.128500
     42 H18          1.3810     2.3070    -2.4340 ha         1 ZFB       0.109500
@<TRIPOS>BOND
     1     1     2 1   
     2     1    12 1   
     3     1    25 1   
     4     2     3 2   
     5     2     4 1   
     6     4     5 1   
     7     5     6 1   
     8     5    26 1   
     9     5    27 1   
    10     6     7 ar  
    11     6    11 ar  
    12     7     8 ar  
    13     7    28 1   
    14     8     9 ar  
    15     8    29 1   
    16     9    10 ar  
    17     9    30 1   
    18    10    11 ar  
    19    10    31 1   
    20    11    32 1   
    21    12    13 1   
    22    12    18 1   
    23    12    33 1   
    24    13    14 2   
    25    13    15 1   
    26    15    16 1   
    27    15    34 1   
    28    15    35 1   
    29    16    17 3   
    30    18    19 1   
    31    18    36 1   
    32    18    37 1   
    33    19    20 ar  
    34    19    24 ar  
    35    20    21 ar  
    36    20    38 1   
    37    21    22 ar  
    38    21    39 1   
    39    22    23 ar  
    40    22    40 1   
    41    23    24 ar  
    42    23    41 1   
    43    24    42 1   
@<TRIPOS>SUBSTRUCTURE
     1 ZFB         1 TEMP              0 ****  ****    0 ROOT
