@<TRIPOS>MOLECULE
ZFC
   36    35     1     0     0
SMALL
abcg2


@<TRIPOS>ATOM
      1 O1         -15.0830    59.8890    23.8870 oh         1 ZFC      -0.670000
      2 C1         -16.3880    59.6600    24.4390 c3         1 ZFC       0.162600
      3 C2         -16.7970    58.2250    24.1660 c3         1 ZFC      -0.074400
      4 C3         -17.0010    57.9050    22.6860 c3         1 ZFC      -0.073400
      5 C4         -17.3980    56.4520    22.4390 c3         1 ZFC      -0.075400
      6 C5         -17.6040    56.1330    20.9590 c3         1 ZFC      -0.073400
      7 C6         -18.0230    54.6880    20.6730 c3         1 ZFC      -0.071400
      8 C7         -17.0250    53.6180    21.1360 c3         1 ZFC      -0.072400
      9 C8         -15.5960    53.7970    20.6150 c3         1 ZFC      -0.075400
     10 C9         -15.4750    53.7530    19.0920 c3         1 ZFC      -0.074400
     11 C10        -14.0370    53.8700    18.5780 c3         1 ZFC      -0.075400
     12 C11        -13.3970    55.2340    18.8370 c3         1 ZFC      -0.090100
     13 H11        -16.3730    59.8450    25.5180 h1         1 ZFC       0.019200
     14 H12        -17.1130    60.3490    23.9880 h1         1 ZFC       0.019200
     15 H22        -16.0410    57.5560    24.5910 hc         1 ZFC       0.045700
     16 H21        -17.7270    58.0340    24.7120 hc         1 ZFC       0.045700
     17 H32        -17.7720    58.5690    22.2790 hc         1 ZFC       0.043200
     18 H31        -16.0820    58.1240    22.1350 hc         1 ZFC       0.043200
     19 H42        -16.6260    55.7990    22.8570 hc         1 ZFC       0.036700
     20 H41        -18.3200    56.2270    22.9890 hc         1 ZFC       0.036700
     21 H52        -18.3690    56.8050    20.5560 hc         1 ZFC       0.037700
     22 H51        -16.6830    56.3640    20.4140 hc         1 ZFC       0.037700
     23 H62        -18.9870    54.4950    21.1560 hc         1 ZFC       0.035700
     24 H61        -18.1960    54.5810    19.5990 hc         1 ZFC       0.035700
     25 H72        -16.9980    53.5960    22.2290 hc         1 ZFC       0.035700
     26 H71        -17.3990    52.6370    20.8220 hc         1 ZFC       0.035700
     27 H82        -15.1900    54.7400    20.9920 hc         1 ZFC       0.038700
     28 H81        -14.9660    53.0070    21.0390 hc         1 ZFC       0.038700
     29 H92        -15.9080    52.8130    18.7340 hc         1 ZFC       0.036700
     30 H91        -16.0720    54.5550    18.6470 hc         1 ZFC       0.036700
     31 H102       -13.4250    53.0860    19.0380 hc         1 ZFC       0.035700
     32 H101       -14.0300    53.6730    17.5020 hc         1 ZFC       0.035700
     33 H113       -12.3930    55.2850    18.4120 hc         1 ZFC       0.031700
     34 H112       -13.9930    56.0330    18.3850 hc         1 ZFC       0.031700
     35 H111       -13.3160    55.4470    19.9040 hc         1 ZFC       0.031700
     36 H1O        -14.8450    60.8090    24.0500 ho         1 ZFC       0.438000
@<TRIPOS>BOND
     1     1     2 1   
     2     1    36 1   
     3     2     3 1   
     4     2    13 1   
     5     2    14 1   
     6     3     4 1   
     7     3    15 1   
     8     3    16 1   
     9     4     5 1   
    10     4    17 1   
    11     4    18 1   
    12     5     6 1   
    13     5    19 1   
    14     5    20 1   
    15     6     7 1   
    16     6    21 1   
    17     6    22 1   
    18     7     8 1   
    19     7    23 1   
    20     7    24 1   
    21     8     9 1   
    22     8    25 1   
    23     8    26 1   
    24     9    10 1   
    25     9    27 1   
    26     9    28 1   
    27    10    11 1   
    28    10    29 1   
    29    10    30 1   
    30    11    12 1   
    31    11    31 1   
    32    11    32 1   
    33    12    33 1   
    34    12    34 1   
    35    12    35 1   
@<TRIPOS>SUBSTRUCTURE
     1 ZFC         1 TEMP              0 ****  ****    0 ROOT
