@<TRIPOS>MOLECULE
ZFC
   36    35     1     0     0
SMALL
No Charge or Current Charge


@<TRIPOS>ATOM
      1 O1         -15.2490    60.1520    23.9960 oh         1 ZFC      -0.670000
      2 C1         -16.5100    59.7700    24.5580 c3         1 ZFC       0.162600
      3 C2         -16.8100    58.2850    24.2550 c3         1 ZFC      -0.074400
      4 C3         -17.0290    57.9770    22.7540 c3         1 ZFC      -0.073400
      5 C4         -17.3700    56.4950    22.4860 c3         1 ZFC      -0.075400
      6 C5         -17.5840    56.1870    20.9850 c3         1 ZFC      -0.073400
      7 C6         -18.0020    54.7260    20.6830 c3         1 ZFC      -0.071400
      8 C7         -16.9960    53.6290    21.1210 c3         1 ZFC      -0.072400
      9 C8         -15.5610    53.7630    20.5520 c3         1 ZFC      -0.075400
     10 C9         -15.4800    53.7150    19.0060 c3         1 ZFC      -0.074400
     11 C10        -14.0390    53.7210    18.4450 c3         1 ZFC      -0.075400
     12 C11        -13.2550    55.0210    18.7210 c3         1 ZFC      -0.090100
     13 H11        -16.4940    59.9130    25.6470 h1         1 ZFC       0.019200
     14 H12        -17.3170    60.3940    24.1510 h1         1 ZFC       0.019200
     15 H22        -15.9920    57.6660    24.6420 hc         1 ZFC       0.045700
     16 H21        -17.7110    57.9970    24.8100 hc         1 ZFC       0.045700
     17 H32        -17.8410    58.6090    22.3720 hc         1 ZFC       0.043200
     18 H31        -16.1250    58.2430    22.1920 hc         1 ZFC       0.043200
     19 H42        -16.5560    55.8710    22.8750 hc         1 ZFC       0.036700
     20 H41        -18.2770    56.2260    23.0420 hc         1 ZFC       0.036700
     21 H52        -18.3660    56.8530    20.5990 hc         1 ZFC       0.037700
     22 H51        -16.6720    56.4330    20.4280 hc         1 ZFC       0.037700
     23 H62        -18.9630    54.5290    21.1730 hc         1 ZFC       0.035700
     24 H61        -18.1900    54.6310    19.6070 hc         1 ZFC       0.035700
     25 H72        -16.9380    53.6110    22.2160 hc         1 ZFC       0.035700
     26 H71        -17.3990    52.6520    20.8270 hc         1 ZFC       0.035700
     27 H82        -15.1130    54.6940    20.9200 hc         1 ZFC       0.038700
     28 H81        -14.9520    52.9470    20.9620 hc         1 ZFC       0.038700
     29 H92        -15.9860    52.8070    18.6550 hc         1 ZFC       0.036700
     30 H91        -16.0280    54.5640    18.5800 hc         1 ZFC       0.036700
     31 H102       -13.4830    52.8690    18.8550 hc         1 ZFC       0.035700
     32 H101       -14.0880    53.5680    17.3600 hc         1 ZFC       0.035700
     33 H113       -12.2780    54.9880    18.2230 hc         1 ZFC       0.031700
     34 H112       -13.8020    55.8930    18.3420 hc         1 ZFC       0.031700
     35 H111       -13.0810    55.1580    19.7940 hc         1 ZFC       0.031700
     36 H1O        -15.1110    61.0990    24.2230 ho         1 ZFC       0.438000
@<TRIPOS>BOND
     1     1     2 1   
     2     1    36 1   
     3     2     3 1   
     4     2    13 1   
     5     2    14 1   
     6     3     4 1   
     7     3    15 1   
     8     3    16 1   
     9     4     5 1   
    10     4    17 1   
    11     4    18 1   
    12     5     6 1   
    13     5    19 1   
    14     5    20 1   
    15     6     7 1   
    16     6    21 1   
    17     6    22 1   
    18     7     8 1   
    19     7    23 1   
    20     7    24 1   
    21     8     9 1   
    22     8    25 1   
    23     8    26 1   
    24     9    10 1   
    25     9    27 1   
    26     9    28 1   
    27    10    11 1   
    28    10    29 1   
    29    10    30 1   
    30    11    12 1   
    31    11    31 1   
    32    11    32 1   
    33    12    33 1   
    34    12    34 1   
    35    12    35 1   
@<TRIPOS>SUBSTRUCTURE
     1 ZFC         1 TEMP              0 ****  ****    0 ROOT
