@<TRIPOS>MOLECULE
ZFG
   37    38     1     0     0
SMALL
No Charge or Current Charge


@<TRIPOS>ATOM
      1 C11          2.9840   -38.2560   -12.5320 ca         1 ZFG      -0.048500
      2 C12          3.0770   -39.4030   -13.3410 ca         1 ZFG      -0.196000
      3 C13          2.2230   -40.5030   -13.1350 ca         1 ZFG       0.348000
      4 C14          1.2740   -40.4310   -12.0970 ca         1 ZFG      -0.196000
      5 C15          1.1780   -39.2860   -11.2860 ca         1 ZFG      -0.048500
      6 C01          0.4470   -32.3370    -6.5190 c3         1 ZFG      -0.055900
      7 C02          0.7430   -33.2340    -7.7040 c2         1 ZFG      -0.203200
      8 C04          1.7290   -35.1400    -6.3760 c3         1 ZFG      -0.056900
      9 C05          1.5490   -35.2230    -8.8980 cc         1 ZFG      -0.169800
     10 C06          2.0380   -34.7430   -10.0910 cd         1 ZFG      -0.127000
     11 C07          2.2380   -35.7410   -11.0840 cd         1 ZFG      -0.141000
     12 C08          1.9210   -37.0000   -10.6390 cc         1 ZFG      -0.127000
     13 C10          2.0290   -38.1840   -11.4980 ca         1 ZFG      -0.074000
     14 N16          2.3180   -41.6590   -13.9520 nh         1 ZFG      -0.834400
     15 S09          1.3490   -36.9800    -8.9740 ss         1 ZFG       0.183000
     16 H1           3.6720   -37.4330   -12.7070 ha         1 ZFG       0.110500
     17 H2           3.8310   -39.4320   -14.1200 ha         1 ZFG       0.111500
     18 H3           0.5930   -41.2560   -11.9170 ha         1 ZFG       0.111500
     19 H4           0.4300   -39.2580   -10.4980 ha         1 ZFG       0.110500
     20 H5           1.3730   -31.9910    -6.0440 hc         1 ZFG       0.040033
     21 H6          -0.1200   -31.4510    -6.8270 hc         1 ZFG       0.040033
     22 H7          -0.1460   -32.8630    -5.7610 hc         1 ZFG       0.040033
     23 H8           0.4670   -32.7940    -8.6640 ha         1 ZFG       0.170000
     24 H9           2.0580   -34.4080    -5.6300 hc         1 ZFG       0.044033
     25 H10          0.9120   -35.7220    -5.9310 hc         1 ZFG       0.044033
     26 H11          2.5720   -35.8210    -6.5390 hc         1 ZFG       0.044033
     27 H12          2.2530   -33.6920   -10.2620 ha         1 ZFG       0.131000
     28 H13          2.5970   -35.5170   -12.0830 ha         1 ZFG       0.131000
     29 H14          0.8420   -43.1480   -13.5640 h1         1 ZFG       0.035033
     30 H15          2.4460   -43.7910   -14.0020 h1         1 ZFG       0.035033
     31 H16          2.1870   -43.1050   -12.3890 h1         1 ZFG       0.035033
     32 H17          3.9130   -41.6230   -15.3670 h1         1 ZFG       0.035033
     33 H18          2.4250   -42.4160   -15.9470 h1         1 ZFG       0.035033
     34 H19          2.4860   -40.6490   -15.8230 h1         1 ZFG       0.035033
     35 C03          1.2810   -34.4750    -7.6700 ce         1 ZFG      -0.038400
     36 C17          1.9240   -42.9970   -13.4500 c3         1 ZFG       0.223100
     37 C18          2.8150   -41.5830   -15.3460 c3         1 ZFG       0.223100
@<TRIPOS>BOND
     1     1     2 ar  
     2     1    13 ar  
     3     1    16 1   
     4     2     3 ar  
     5     2    17 1   
     6     3     4 ar  
     7     3    14 1   
     8     4     5 ar  
     9     4    18 1   
    10     5    13 ar  
    11     5    19 1   
    12     6     7 1   
    13     6    20 1   
    14     6    21 1   
    15     6    22 1   
    16     7    23 1   
    17     7    35 2   
    18     8    24 1   
    19     8    25 1   
    20     8    26 1   
    21     8    35 1   
    22     9    10 2   
    23     9    15 1   
    24     9    35 1   
    25    10    11 1   
    26    10    27 1   
    27    11    12 2   
    28    11    28 1   
    29    12    13 1   
    30    12    15 1   
    31    14    36 1   
    32    14    37 1   
    33    29    36 1   
    34    30    36 1   
    35    31    36 1   
    36    32    37 1   
    37    33    37 1   
    38    34    37 1   
@<TRIPOS>SUBSTRUCTURE
     1 ZFG         1 TEMP              0 ****  ****    0 ROOT
