@<TRIPOS>MOLECULE
ZFG
   37    38     1     0     0
SMALL
bcc


@<TRIPOS>ATOM
      1 C11          2.7840   -38.1730   -12.7310 ca         1 ZFG      -0.066500
      2 C12          2.9020   -39.3250   -13.4810 ca         1 ZFG      -0.214000
      3 C13          2.2220   -40.5060   -13.1190 ca         1 ZFG       0.209600
      4 C14          1.4140   -40.4440   -11.9670 ca         1 ZFG      -0.214000
      5 C15          1.3030   -39.2790   -11.2320 ca         1 ZFG      -0.066500
      6 C01          0.6900   -32.3980    -6.4660 c3         1 ZFG      -0.055900
      7 C02          0.9390   -33.2560    -7.6610 c2         1 ZFG      -0.153200
      8 C04          1.5340   -35.3890    -6.4680 c3         1 ZFG      -0.056900
      9 C05          1.5850   -35.1900    -8.9770 cc         1 ZFG      -0.024900
     10 C06          1.9310   -34.6390   -10.1820 cd         1 ZFG      -0.145000
     11 C07          2.0880   -35.5890   -11.2180 cd         1 ZFG      -0.159000
     12 C08          1.8790   -36.8810   -10.8130 cc         1 ZFG       0.017900
     13 C10          1.9840   -38.1120   -11.5870 ca         1 ZFG      -0.074000
     14 N16          2.3430   -41.6510   -13.8480 nh         1 ZFG      -0.696000
     15 S09          1.4840   -36.9130    -9.1310 ss         1 ZFG      -0.106800
     16 H1           3.3490   -37.3020   -13.0390 ha         1 ZFG       0.128500
     17 H2           3.5430   -39.3040   -14.3520 ha         1 ZFG       0.129500
     18 H3           0.8570   -41.3100   -11.6370 ha         1 ZFG       0.129500
     19 H4           0.6520   -39.2850   -10.3650 ha         1 ZFG       0.128500
     20 H5           1.3090   -31.4980    -6.5090 hc         1 ZFG       0.040033
     21 H6          -0.3470   -32.0550    -6.4480 hc         1 ZFG       0.040033
     22 H7           0.8920   -32.8930    -5.5190 hc         1 ZFG       0.040033
     23 H8           0.7780   -32.7570    -8.6120 ha         1 ZFG       0.120000
     24 H9           1.3640   -34.8430    -5.5430 hc         1 ZFG       0.044033
     25 H10          0.8520   -36.2440    -6.4630 hc         1 ZFG       0.044033
     26 H11          2.5480   -35.7920    -6.4360 hc         1 ZFG       0.044033
     27 H12          2.0820   -33.5770   -10.3240 ha         1 ZFG       0.149000
     28 H13          2.3460   -35.3220   -12.2340 ha         1 ZFG       0.149000
     29 H14          0.5370   -42.6840   -13.4660 h1         1 ZFG       0.035033
     30 H15          1.8450   -43.6410   -14.1520 h1         1 ZFG       0.035033
     31 H16          1.9000   -43.1800   -12.4560 h1         1 ZFG       0.035033
     32 H17          4.2180   -41.4380   -14.8010 h1         1 ZFG       0.035033
     33 H18          3.1500   -42.6640   -15.4690 h1         1 ZFG       0.035033
     34 H19          2.8310   -40.9630   -15.7870 h1         1 ZFG       0.035033
     35 C03          1.3270   -34.5390    -7.6890 ce         1 ZFG      -0.038400
     36 C17          1.6210   -42.8370   -13.4560 c3         1 ZFG       0.223100
     37 C18          3.1740   -41.6720   -15.0270 c3         1 ZFG       0.223100
@<TRIPOS>BOND
     1     1     2 ar  
     2     1    13 ar  
     3     1    16 1   
     4     2     3 ar  
     5     2    17 1   
     6     3     4 ar  
     7     3    14 1   
     8     4     5 ar  
     9     4    18 1   
    10     5    13 ar  
    11     5    19 1   
    12     6     7 1   
    13     6    20 1   
    14     6    21 1   
    15     6    22 1   
    16     7    23 1   
    17     7    35 2   
    18     8    24 1   
    19     8    25 1   
    20     8    26 1   
    21     8    35 1   
    22     9    10 2   
    23     9    15 1   
    24     9    35 1   
    25    10    11 1   
    26    10    27 1   
    27    11    12 2   
    28    11    28 1   
    29    12    13 1   
    30    12    15 1   
    31    14    36 1   
    32    14    37 1   
    33    29    36 1   
    34    30    36 1   
    35    31    36 1   
    36    32    37 1   
    37    33    37 1   
    38    34    37 1   
@<TRIPOS>SUBSTRUCTURE
     1 ZFG         1 TEMP              0 ****  ****    0 ROOT
