@<TRIPOS>MOLECULE
ZFI
   25    25     1     0     0
SMALL
No Charge or Current Charge


@<TRIPOS>ATOM
      1 C10         35.3500   -42.8960    31.5470 ca         1 ZFI       0.078000
      2 C01         36.6490   -39.6280    31.1920 c3         1 ZFI      -0.340100
      3 S02         35.7990   -40.3040    32.6140 sy         1 ZFI       1.082500
      4 O03         34.3710   -40.0280    32.4100 o          1 ZFI      -0.538000
      5 O04         36.5030   -39.8070    33.8040 o          1 ZFI      -0.538000
      6 C05         36.0870   -42.0870    32.4540 ca         1 ZFI      -0.327500
      7 C06         37.1100   -42.6680    33.2380 ca         1 ZFI      -0.001000
      8 C07         37.3880   -44.0390    33.1410 ca         1 ZFI      -0.153000
      9 C08         36.6520   -44.8450    32.2640 ca         1 ZFI      -0.030000
     10 C09         35.6400   -44.2770    31.4750 ca         1 ZFI      -0.151000
     11 N11         34.3210   -42.3240    30.7520 ns         1 ZFI      -0.182000
     12 C12         33.7240   -42.7410    29.5730 c          1 ZFI       0.609100
     13 O13         34.0690   -43.7280    28.9350 o          1 ZFI      -0.573100
     14 C14         32.5880   -41.8420    29.0980 c3         1 ZFI      -0.178100
     15 H1          37.7060   -39.9020    31.2660 h1         1 ZFI       0.104700
     16 H2          36.2020   -40.0550    30.2880 h1         1 ZFI       0.104700
     17 H3          36.5280   -38.5400    31.2080 h1         1 ZFI       0.104700
     18 H4          37.6980   -42.0640    33.9280 ha         1 ZFI       0.140000
     19 H5          38.1740   -44.4780    33.7510 ha         1 ZFI       0.124000
     20 H6          36.8620   -45.9100    32.1960 ha         1 ZFI       0.121000
     21 H7          35.0760   -44.9320    30.8190 ha         1 ZFI       0.149000
     22 H8          33.9330   -41.4690    31.1310 hn         1 ZFI       0.183000
     23 H9          32.1430   -42.1850    28.1580 hc         1 ZFI       0.070033
     24 H10         31.8400   -41.7610    29.8960 hc         1 ZFI       0.070033
     25 H11         32.9560   -40.8130    29.0200 hc         1 ZFI       0.070033
@<TRIPOS>BOND
     1     1     6 ar  
     2     1    10 ar  
     3     1    11 1   
     4     2     3 1   
     5     2    15 1   
     6     2    16 1   
     7     2    17 1   
     8     3     4 2   
     9     3     5 2   
    10     3     6 1   
    11     6     7 ar  
    12     7     8 ar  
    13     7    18 1   
    14     8     9 ar  
    15     8    19 1   
    16     9    10 ar  
    17     9    20 1   
    18    10    21 1   
    19    11    12 1   
    20    11    22 1   
    21    12    13 2   
    22    12    14 1   
    23    14    23 1   
    24    14    24 1   
    25    14    25 1   
@<TRIPOS>SUBSTRUCTURE
     1 ZFI         1 TEMP              0 ****  ****    0 ROOT
