@<TRIPOS>MOLECULE
ZFI
   25    25     1     0     0
SMALL
abcg2


@<TRIPOS>ATOM
      1 C10         35.3160   -42.8880    31.5640 ca         1 ZFI       0.078000
      2 C01         36.5980   -39.6590    31.1630 c3         1 ZFI      -0.340100
      3 S02         35.8400   -40.3500    32.6110 sy         1 ZFI       1.082500
      4 O03         34.4100   -40.0700    32.5530 o          1 ZFI      -0.538000
      5 O04         36.5640   -39.8920    33.7800 o          1 ZFI      -0.538000
      6 C05         36.0850   -42.1020    32.4480 ca         1 ZFI      -0.327500
      7 C06         37.1030   -42.6670    33.2120 ca         1 ZFI      -0.001000
      8 C07         37.3800   -44.0220    33.1140 ca         1 ZFI      -0.153000
      9 C08         36.6260   -44.8050    32.2460 ca         1 ZFI      -0.030000
     10 C09         35.6070   -44.2530    31.4830 ca         1 ZFI      -0.151000
     11 N11         34.2840   -42.3050    30.8220 ns         1 ZFI      -0.182000
     12 C12         33.7520   -42.7300    29.6310 c          1 ZFI       0.609100
     13 O13         34.1210   -43.7370    29.0430 o          1 ZFI      -0.573100
     14 C14         32.6640   -41.8260    29.1050 c3         1 ZFI      -0.178100
     15 H1          37.6600   -39.8930    31.1870 h1         1 ZFI       0.104700
     16 H2          36.1190   -40.0840    30.2820 h1         1 ZFI       0.104700
     17 H3          36.4310   -38.5830    31.2110 h1         1 ZFI       0.104700
     18 H4          37.6710   -42.0340    33.8770 ha         1 ZFI       0.140000
     19 H5          38.1710   -44.4580    33.7080 ha         1 ZFI       0.124000
     20 H6          36.8250   -45.8660    32.1650 ha         1 ZFI       0.121000
     21 H7          35.0250   -44.8730    30.8230 ha         1 ZFI       0.149000
     22 H8          33.9280   -41.4300    31.1870 hn         1 ZFI       0.183000
     23 H9          32.2960   -42.2170    28.1610 hc         1 ZFI       0.070033
     24 H10         31.8420   -41.7660    29.8220 hc         1 ZFI       0.070033
     25 H11         33.0510   -40.8150    28.9580 hc         1 ZFI       0.070033
@<TRIPOS>BOND
     1     1     6 ar  
     2     1    10 ar  
     3     1    11 1   
     4     2     3 1   
     5     2    15 1   
     6     2    16 1   
     7     2    17 1   
     8     3     4 2   
     9     3     5 2   
    10     3     6 1   
    11     6     7 ar  
    12     7     8 ar  
    13     7    18 1   
    14     8     9 ar  
    15     8    19 1   
    16     9    10 ar  
    17     9    20 1   
    18    10    21 1   
    19    11    12 1   
    20    11    22 1   
    21    12    13 2   
    22    12    14 1   
    23    14    23 1   
    24    14    24 1   
    25    14    25 1   
@<TRIPOS>SUBSTRUCTURE
     1 ZFI         1 TEMP              0 ****  ****    0 ROOT
