@<TRIPOS>MOLECULE
ZFJ
   50    52     1     0     0
SMALL
abcg2


@<TRIPOS>ATOM
      1 C10        -29.5320    16.7960     7.6630 ca         1 ZFJ      -0.098000
      2 C13        -27.3870    18.4230     8.4360 ca         1 ZFJ      -0.081000
      3 C15        -27.2670    17.9540    11.6030 c3         1 ZFJ      -0.069600
      4 C17        -29.6060    11.7410    13.2330 c3         1 ZFJ       0.229300
      5 C20        -26.3470    12.5300    13.6980 c3         1 ZFJ      -0.121600
      6 C21        -27.7230    19.8260     6.3670 ce         1 ZFJ      -0.163200
      7 C22        -26.6980    20.6700     6.5120 c2         1 ZFJ      -0.209200
      8 C01        -28.0320    15.6810    10.8350 ca         1 ZFJ      -0.029300
      9 C02        -27.9330    14.8400    11.9210 ca         1 ZFJ      -0.181000
     10 C03        -28.8210    13.7490    12.0580 ca         1 ZFJ       0.352000
     11 C04        -29.7840    13.5660    11.0380 ca         1 ZFJ      -0.201000
     12 C05        -29.8740    14.4220     9.9540 ca         1 ZFJ      -0.036000
     13 C06        -28.9960    15.4910     9.8410 cp         1 ZFJ      -0.102000
     14 C07        -28.8370    16.5280     8.8340 cp         1 ZFJ      -0.011000
     15 C08        -27.7660    17.3510     9.2110 ca         1 ZFJ      -0.089300
     16 C09        -27.1600    16.8790    10.5180 c5         1 ZFJ       0.035600
     17 C11        -29.1450    17.8800     6.8850 ca         1 ZFJ      -0.100000
     18 C12        -28.0750    18.7070     7.2450 ca         1 ZFJ      -0.056800
     19 C14        -25.6990    16.4580    10.3340 c3         1 ZFJ      -0.069600
     20 C18        -29.1430    10.5560    12.3930 c3         1 ZFJ      -0.121600
     21 C19        -27.7090    13.0600    14.1330 c3         1 ZFJ       0.229300
     22 C23        -26.3900    21.7890     5.5750 c3         1 ZFJ      -0.057900
     23 N16        -28.7640    12.9190    13.1470 nh         1 ZFJ      -0.829400
     24 H1         -30.3650    16.1770     7.3510 ha         1 ZFJ       0.114000
     25 H2         -26.5570    19.0450     8.7530 ha         1 ZFJ       0.111000
     26 H3         -26.8810    17.5810    12.5540 hc         1 ZFJ       0.037867
     27 H4         -26.6840    18.8350    11.3290 hc         1 ZFJ       0.037867
     28 H5         -28.3010    18.2640    11.7550 hc         1 ZFJ       0.037867
     29 H6         -30.6330    12.0040    12.9700 h1         1 ZFJ       0.046200
     30 H7         -29.6440    11.4450    14.2820 h1         1 ZFJ       0.046200
     31 H8         -25.6130    12.6940    14.4880 hc         1 ZFJ       0.041533
     32 H9         -26.3860    11.4600    13.4950 hc         1 ZFJ       0.041533
     33 H10        -25.9840    13.0300    12.8000 hc         1 ZFJ       0.041533
     34 H11        -28.3760    19.9580     5.5080 ha         1 ZFJ       0.168000
     35 H12        -26.0210    20.5620     7.3550 ha         1 ZFJ       0.167000
     36 H13        -27.1650    15.0290    12.6580 ha         1 ZFJ       0.114000
     37 H14        -30.4770    12.7390    11.0850 ha         1 ZFJ       0.111000
     38 H15        -30.6310    14.2390     9.2000 ha         1 ZFJ       0.111000
     39 H16        -29.6840    18.0930     5.9700 ha         1 ZFJ       0.108000
     40 H17        -25.2960    16.0520    11.2640 hc         1 ZFJ       0.037867
     41 H18        -25.6000    15.6960     9.5600 hc         1 ZFJ       0.037867
     42 H19        -25.0840    17.3130    10.0480 hc         1 ZFJ       0.037867
     43 H20        -29.8510     9.7320    12.4890 hc         1 ZFJ       0.041533
     44 H21        -29.0710    10.8100    11.3350 hc         1 ZFJ       0.041533
     45 H22        -28.1680    10.1940    12.7180 hc         1 ZFJ       0.041533
     46 H23        -27.6220    14.1090    14.4300 h1         1 ZFJ       0.046200
     47 H24        -28.0310    12.5310    15.0300 h1         1 ZFJ       0.046200
     48 H25        -25.3900    21.6790     5.1480 hc         1 ZFJ       0.039700
     49 H26        -27.1040    21.8410     4.7530 hc         1 ZFJ       0.039700
     50 H27        -26.3980    22.7500     6.0940 hc         1 ZFJ       0.039700
@<TRIPOS>BOND
     1     1    14 ar  
     2     1    17 ar  
     3     1    24 1   
     4     2    15 ar  
     5     2    18 ar  
     6     2    25 1   
     7     3    16 1   
     8     3    26 1   
     9     3    27 1   
    10     3    28 1   
    11     4    20 1   
    12     4    23 1   
    13     4    29 1   
    14     4    30 1   
    15     5    21 1   
    16     5    31 1   
    17     5    32 1   
    18     5    33 1   
    19     6     7 2   
    20     6    18 1   
    21     6    34 1   
    22     7    22 1   
    23     7    35 1   
    24     8     9 ar  
    25     8    13 ar  
    26     8    16 1   
    27     9    10 ar  
    28     9    36 1   
    29    10    11 ar  
    30    10    23 1   
    31    11    12 ar  
    32    11    37 1   
    33    12    13 ar  
    34    12    38 1   
    35    13    14 1   
    36    14    15 ar  
    37    15    16 1   
    38    16    19 1   
    39    17    18 ar  
    40    17    39 1   
    41    19    40 1   
    42    19    41 1   
    43    19    42 1   
    44    20    43 1   
    45    20    44 1   
    46    20    45 1   
    47    21    23 1   
    48    21    46 1   
    49    21    47 1   
    50    22    48 1   
    51    22    49 1   
    52    22    50 1   
@<TRIPOS>SUBSTRUCTURE
     1 ZFJ         1 TEMP              0 ****  ****    0 ROOT
