@<TRIPOS>MOLECULE
ZFJ
   50    52     1     0     0
SMALL
No Charge or Current Charge


@<TRIPOS>ATOM
      1 C10        -29.2370    16.6230     7.5280 ca         1 ZFJ      -0.098000
      2 C13        -27.3920    18.5880     8.4290 ca         1 ZFJ      -0.081000
      3 C15        -27.5470    18.1000    11.6640 c3         1 ZFJ      -0.069600
      4 C17        -29.8170    12.0820    13.5610 c3         1 ZFJ       0.229300
      5 C20        -26.2020    11.9970    13.0000 c3         1 ZFJ      -0.121600
      6 C21        -27.7440    19.9030     6.2800 ce         1 ZFJ      -0.163200
      7 C22        -26.7550    20.8110     6.4370 c2         1 ZFJ      -0.209200
      8 C01        -27.9220    15.7090    10.8810 ca         1 ZFJ      -0.029300
      9 C02        -27.8580    14.8560    11.9900 ca         1 ZFJ      -0.181000
     10 C03        -28.6430    13.6810    11.9930 ca         1 ZFJ       0.352000
     11 C04        -29.4730    13.4020    10.8770 ca         1 ZFJ      -0.201000
     12 C05        -29.5260    14.2720     9.7690 ca         1 ZFJ      -0.036000
     13 C06        -28.7360    15.4360     9.7820 cp         1 ZFJ      -0.102000
     14 C07        -28.6040    16.4890     8.7770 cp         1 ZFJ      -0.011000
     15 C08        -27.7020    17.4620     9.2060 ca         1 ZFJ      -0.089300
     16 C09        -27.1940    17.0360    10.5960 c5         1 ZFJ       0.035600
     17 C11        -28.9390    17.7470     6.7300 ca         1 ZFJ      -0.100000
     18 C12        -28.0180    18.7330     7.1670 ca         1 ZFJ      -0.056800
     19 C14        -25.6590    16.8310    10.5840 c3         1 ZFJ      -0.069600
     20 C18        -29.8320    10.5840    13.2040 c3         1 ZFJ      -0.121600
     21 C19        -27.3510    12.5550    13.8600 c3         1 ZFJ       0.229300
     22 C23        -26.5030    21.9830     5.5130 c3         1 ZFJ      -0.057900
     23 N16        -28.6010    12.7880    13.0960 nh         1 ZFJ      -0.829400
     24 H1         -29.9430    15.8720     7.1820 ha         1 ZFJ       0.114000
     25 H2         -26.6910    19.3250     8.8080 ha         1 ZFJ       0.111000
     26 H3         -27.2260    17.7840    12.6640 hc         1 ZFJ       0.037867
     27 H4         -27.0650    19.0610    11.4460 hc         1 ZFJ       0.037867
     28 H5         -28.6290    18.2720    11.7010 hc         1 ZFJ       0.037867
     29 H6         -30.7130    12.5550    13.1360 h1         1 ZFJ       0.046200
     30 H7         -29.9060    12.1840    14.6510 h1         1 ZFJ       0.046200
     31 H8         -25.3190    11.8120    13.6220 hc         1 ZFJ       0.041533
     32 H9         -26.4980    11.0510    12.5320 hc         1 ZFJ       0.041533
     33 H10        -25.9220    12.7040    12.2100 hc         1 ZFJ       0.041533
     34 H11        -28.4220    19.9960     5.4290 ha         1 ZFJ       0.168000
     35 H12        -26.0470    20.7450     7.2640 ha         1 ZFJ       0.167000
     36 H13        -27.2190    15.1090    12.8290 ha         1 ZFJ       0.114000
     37 H14        -30.0730    12.4990    10.8580 ha         1 ZFJ       0.111000
     38 H15        -30.1630    14.0450     8.9180 ha         1 ZFJ       0.111000
     39 H16        -29.4260    17.8520     5.7630 ha         1 ZFJ       0.108000
     40 H17        -25.2950    16.4850    11.5590 hc         1 ZFJ       0.037867
     41 H18        -25.3710    16.0820     9.8380 hc         1 ZFJ       0.037867
     42 H19        -25.1330    17.7620    10.3410 hc         1 ZFJ       0.037867
     43 H20        -30.7620    10.1220    13.5520 hc         1 ZFJ       0.041533
     44 H21        -29.7610    10.4400    12.1200 hc         1 ZFJ       0.041533
     45 H22        -28.9920    10.0620    13.6780 hc         1 ZFJ       0.041533
     46 H23        -27.0230    13.4860    14.3410 h1         1 ZFJ       0.046200
     47 H24        -27.5380    11.8400    14.6730 h1         1 ZFJ       0.046200
     48 H25        -25.6490    22.5800     5.8540 hc         1 ZFJ       0.039700
     49 H26        -26.2870    21.6420     4.4940 hc         1 ZFJ       0.039700
     50 H27        -27.3770    22.6440     5.4690 hc         1 ZFJ       0.039700
@<TRIPOS>BOND
     1     1    14 ar  
     2     1    17 ar  
     3     1    24 1   
     4     2    15 ar  
     5     2    18 ar  
     6     2    25 1   
     7     3    16 1   
     8     3    26 1   
     9     3    27 1   
    10     3    28 1   
    11     4    20 1   
    12     4    23 1   
    13     4    29 1   
    14     4    30 1   
    15     5    21 1   
    16     5    31 1   
    17     5    32 1   
    18     5    33 1   
    19     6     7 2   
    20     6    18 1   
    21     6    34 1   
    22     7    22 1   
    23     7    35 1   
    24     8     9 ar  
    25     8    13 ar  
    26     8    16 1   
    27     9    10 ar  
    28     9    36 1   
    29    10    11 ar  
    30    10    23 1   
    31    11    12 ar  
    32    11    37 1   
    33    12    13 ar  
    34    12    38 1   
    35    13    14 1   
    36    14    15 ar  
    37    15    16 1   
    38    16    19 1   
    39    17    18 ar  
    40    17    39 1   
    41    19    40 1   
    42    19    41 1   
    43    19    42 1   
    44    20    43 1   
    45    20    44 1   
    46    20    45 1   
    47    21    23 1   
    48    21    46 1   
    49    21    47 1   
    50    22    48 1   
    51    22    49 1   
    52    22    50 1   
@<TRIPOS>SUBSTRUCTURE
     1 ZFJ         1 TEMP              0 ****  ****    0 ROOT
