@<TRIPOS>MOLECULE
ZFP
   38    40     1     0     0
SMALL
bcc


@<TRIPOS>ATOM
      1 C10         53.3850    24.5160   -33.0730 cy         1 ZFP      -0.111400
      2 C13         58.0550    23.8410   -42.0190 cc         1 ZFP      -0.022900
      3 C15         55.8770    24.1040   -41.2230 cd         1 ZFP      -0.159000
      4 C17         58.8190    23.6240   -44.3850 c3         1 ZFP      -0.050900
      5 C01         56.0130    24.3760   -38.6920 ca         1 ZFP      -0.066000
      6 C02         54.7350    24.9130   -38.5040 ca         1 ZFP      -0.072000
      7 C03         54.1940    25.0780   -37.2450 ca         1 ZFP      -0.201000
      8 C04         54.9230    24.7210   -36.0990 ca         1 ZFP       0.191600
      9 C05         56.2100    24.1910   -36.2780 ca         1 ZFP      -0.201000
     10 C06         56.7330    24.0240   -37.5460 ca         1 ZFP      -0.072000
     11 C07         56.5500    24.1860   -40.0340 cc         1 ZFP       0.019900
     12 C09         54.7920    24.2250   -33.6270 cy         1 ZFP       0.201800
     13 C11         53.0010    24.9990   -34.4840 cy         1 ZFP       0.201800
     14 C14         56.7250    23.9140   -42.3400 cd         1 ZFP      -0.145000
     15 C18         60.4320    23.4770   -42.4640 c2         1 ZFP      -0.165200
     16 C19         61.6860    23.2650   -43.2420 c3         1 ZFP      -0.051900
     17 N08         54.4070    24.9050   -34.8550 nn         1 ZFP      -0.669000
     18 S12         58.2530    24.0340   -40.3060 ss         1 ZFP      -0.108800
     19 H1          53.3640    25.3020   -32.3210 hc         1 ZFP       0.061700
     20 H2          52.8360    23.6530   -32.7050 hc         1 ZFP       0.061700
     21 H3          54.7990    24.1560   -41.3000 ha         1 ZFP       0.149000
     22 H4          58.3300    24.5560   -44.6740 hc         1 ZFP       0.041700
     23 H5          59.6850    23.4940   -45.0290 hc         1 ZFP       0.041700
     24 H6          58.1200    22.8160   -44.6050 hc         1 ZFP       0.041700
     25 H7          54.1470    25.2200   -39.3600 ha         1 ZFP       0.129500
     26 H8          53.2020    25.5000   -37.1470 ha         1 ZFP       0.131000
     27 H9          56.8030    23.9010   -35.4190 ha         1 ZFP       0.131000
     28 H10         57.7220    23.5910   -37.6350 ha         1 ZFP       0.129500
     29 H11         55.0050    23.1600   -33.7650 h1         1 ZFP       0.051450
     30 H12         55.6320    24.6800   -33.0960 h1         1 ZFP       0.051450
     31 H13         52.5740    26.0020   -34.5610 h1         1 ZFP       0.051450
     32 H14         52.3570    24.3040   -35.0340 h1         1 ZFP       0.051450
     33 H15         56.3530    23.8220   -43.3500 ha         1 ZFP       0.149000
     34 H16         60.5840    23.4910   -41.3870 ha         1 ZFP       0.117000
     35 H17         62.4130    24.0490   -43.0150 hc         1 ZFP       0.040367
     36 H18         62.1570    22.3210   -42.9590 hc         1 ZFP       0.040367
     37 H19         61.5400    23.2510   -44.3190 hc         1 ZFP       0.040367
     38 C16         59.1840    23.6380   -42.9270 ce         1 ZFP      -0.028400
@<TRIPOS>BOND
     1     1    12 1   
     2     1    13 1   
     3     1    19 1   
     4     1    20 1   
     5     2    14 2   
     6     2    18 1   
     7     2    38 1   
     8     3    11 2   
     9     3    14 1   
    10     3    21 1   
    11     4    22 1   
    12     4    23 1   
    13     4    24 1   
    14     4    38 1   
    15     5     6 ar  
    16     5    10 ar  
    17     5    11 1   
    18     6     7 ar  
    19     6    25 1   
    20     7     8 ar  
    21     7    26 1   
    22     8     9 ar  
    23     8    17 1   
    24     9    10 ar  
    25     9    27 1   
    26    10    28 1   
    27    11    18 1   
    28    12    17 1   
    29    12    29 1   
    30    12    30 1   
    31    13    17 1   
    32    13    31 1   
    33    13    32 1   
    34    14    33 1   
    35    15    16 1   
    36    15    34 1   
    37    15    38 2   
    38    16    35 1   
    39    16    36 1   
    40    16    37 1   
@<TRIPOS>SUBSTRUCTURE
     1 ZFP         1 TEMP              0 ****  ****    0 ROOT
