@<TRIPOS>MOLECULE
ZFP
   38    40     1     0     0
SMALL
No Charge or Current Charge


@<TRIPOS>ATOM
      1 C10         53.3980    24.9360   -32.9840 cy         1 ZFP      -0.111400
      2 C13         58.1380    23.8300   -42.0130 cc         1 ZFP      -0.167800
      3 C15         55.9620    23.9310   -41.1170 cd         1 ZFP      -0.141000
      4 C17         58.8960    23.9840   -44.4210 c3         1 ZFP      -0.050900
      5 C01         56.0520    24.2640   -38.6560 ca         1 ZFP      -0.066000
      6 C02         54.7780    24.8570   -38.5240 ca         1 ZFP      -0.054000
      7 C03         54.1870    25.0030   -37.2570 ca         1 ZFP      -0.183000
      8 C04         54.8530    24.5650   -36.1000 ca         1 ZFP       0.330000
      9 C05         56.1260    23.9830   -36.2280 ca         1 ZFP      -0.183000
     10 C06         56.7220    23.8350   -37.4930 ca         1 ZFP      -0.054000
     11 C07         56.6880    24.1080   -39.9680 cc         1 ZFP      -0.125000
     12 C09         54.5960    24.0990   -33.5390 cy         1 ZFP       0.201800
     13 C11         52.8680    25.0090   -34.4530 cy         1 ZFP       0.201800
     14 C14         56.7830    23.7770   -42.2670 cd         1 ZFP      -0.127000
     15 C18         60.5080    23.3750   -42.5820 c2         1 ZFP      -0.215200
     16 C19         61.7220    23.2210   -43.4770 c3         1 ZFP      -0.051900
     17 N08         54.2700    24.7120   -34.8560 nn         1 ZFP      -0.807400
     18 S12         58.4190    24.0510   -40.2780 ss         1 ZFP       0.181000
     19 H1          53.6880    25.9060   -32.5660 hc         1 ZFP       0.061700
     20 H2          52.7490    24.4210   -32.2690 hc         1 ZFP       0.061700
     21 H3          54.8780    23.8970   -41.1570 ha         1 ZFP       0.131000
     22 H4          58.1430    24.7760   -44.5070 hc         1 ZFP       0.041700
     23 H5          59.7620    24.3180   -45.0030 hc         1 ZFP       0.041700
     24 H6          58.4950    23.0880   -44.9100 hc         1 ZFP       0.041700
     25 H7          54.2440    25.2190   -39.3990 ha         1 ZFP       0.111500
     26 H8          53.2070    25.4650   -37.1780 ha         1 ZFP       0.113000
     27 H9          56.6600    23.6440   -35.3460 ha         1 ZFP       0.113000
     28 H10         57.7050    23.3760   -37.5630 ha         1 ZFP       0.111500
     29 H11         54.4420    23.0140   -33.4880 h1         1 ZFP       0.051450
     30 H12         55.5650    24.3720   -33.1050 h1         1 ZFP       0.051450
     31 H13         52.4820    25.9960   -34.7350 h1         1 ZFP       0.051450
     32 H14         52.1420    24.2250   -34.7040 h1         1 ZFP       0.051450
     33 H15         56.3690    23.6220   -43.2580 ha         1 ZFP       0.131000
     34 H16         60.7310    23.1800   -41.5330 ha         1 ZFP       0.167000
     35 H17         62.0190    24.1840   -43.9110 hc         1 ZFP       0.040367
     36 H18         62.5800    22.8330   -42.9150 hc         1 ZFP       0.040367
     37 H19         61.5230    22.5250   -44.3010 hc         1 ZFP       0.040367
     38 C16         59.2490    23.6980   -42.9660 ce         1 ZFP      -0.028400
@<TRIPOS>BOND
     1     1    12 1   
     2     1    13 1   
     3     1    19 1   
     4     1    20 1   
     5     2    14 2   
     6     2    18 1   
     7     2    38 1   
     8     3    11 2   
     9     3    14 1   
    10     3    21 1   
    11     4    22 1   
    12     4    23 1   
    13     4    24 1   
    14     4    38 1   
    15     5     6 ar  
    16     5    10 ar  
    17     5    11 1   
    18     6     7 ar  
    19     6    25 1   
    20     7     8 ar  
    21     7    26 1   
    22     8     9 ar  
    23     8    17 1   
    24     9    10 ar  
    25     9    27 1   
    26    10    28 1   
    27    11    18 1   
    28    12    17 1   
    29    12    29 1   
    30    12    30 1   
    31    13    17 1   
    32    13    31 1   
    33    13    32 1   
    34    14    33 1   
    35    15    16 1   
    36    15    34 1   
    37    15    38 2   
    38    16    35 1   
    39    16    36 1   
    40    16    37 1   
@<TRIPOS>SUBSTRUCTURE
     1 ZFP         1 TEMP              0 ****  ****    0 ROOT
