@<TRIPOS>MOLECULE
ZFR
   45    45     1     0     0
SMALL
bcc


@<TRIPOS>ATOM
      1 C1          -4.7010     0.8370     0.6790 ca         1 ZFR      -0.194500
      2 C2          -5.9820     1.3390     0.4990 ca         1 ZFR       0.179100
      3 C3          -6.9100     0.6630    -0.2910 ca         1 ZFR      -0.323000
      4 C4          -6.5380    -0.5290    -0.9020 ca         1 ZFR       0.179100
      5 C5          -5.2550    -1.0400    -0.7280 ca         1 ZFR      -0.194500
      6 C6          -4.3310    -0.3590     0.0620 ca         1 ZFR       0.025200
      7 C10          8.0770     0.1350    -0.6950 c3         1 ZFR       0.144100
      8 C11          9.3860    -0.4790    -0.2180 c3         1 ZFR      -0.126100
      9 C6P          3.0050    -0.1530    -0.1130 c          1 ZFR       0.569100
     10 C7P          4.3810    -0.6460     0.2580 c3         1 ZFR      -0.182400
     11 C8P          5.5320     0.0400    -0.4590 c3         1 ZFR      -0.061400
     12 C9P          6.8800    -0.4940     0.0100 c3         1 ZFR      -0.111400
     13 O10          8.0910     1.5460    -0.5640 oh         1 ZFR      -0.591800
     14 C5P          1.8560    -0.8680     0.5540 c3         1 ZFR      -0.182400
     15 C4P          0.4830    -0.2830     0.2720 c3         1 ZFR      -0.062400
     16 C3P         -0.6200    -1.0600     0.9950 c3         1 ZFR      -0.047200
     17 C2P         -1.9550    -0.4070     0.8560 c2         1 ZFR      -0.142200
     18 C1P         -2.9970    -0.9490     0.2230 ce         1 ZFR      -0.121200
     19 O4          -7.3890    -1.2340    -1.6730 oh         1 ZFR      -0.493600
     20 O2          -6.2920     2.4940     1.1210 oh         1 ZFR      -0.493600
     21 H1          -4.0110     1.3790     1.3140 ha         1 ZFR       0.148500
     22 H2          -7.9130     1.0580    -0.4200 ha         1 ZFR       0.131000
     23 H3          -4.9810    -1.9730    -1.2060 ha         1 ZFR       0.148500
     24 H4           7.9760    -0.0480    -1.7700 h1         1 ZFR       0.072700
     25 H6           9.4030    -1.5540    -0.4040 hc         1 ZFR       0.041033
     26 H7          10.2400    -0.0360    -0.7320 hc         1 ZFR       0.041033
     27 H8           4.4840    -0.5320     1.3440 hc         1 ZFR       0.056700
     28 H9           4.4090    -1.7290     0.0920 hc         1 ZFR       0.056700
     29 H10          5.4380    -0.1090    -1.5390 hc         1 ZFR       0.060200
     30 H11          5.4820     1.1170    -0.2890 hc         1 ZFR       0.060200
     31 H12          6.9210    -1.5760    -0.1480 hc         1 ZFR       0.038700
     32 H13          6.9790    -0.3470     1.0930 hc         1 ZFR       0.038700
     33 H14          8.1560     1.7570     0.3740 ho         1 ZFR       0.397000
     34 H15          1.9020    -1.9190     0.2450 hc         1 ZFR       0.058200
     35 H16          2.0490    -0.8880     1.6330 hc         1 ZFR       0.058200
     36 H17          0.4560     0.7630     0.5890 hc         1 ZFR       0.056700
     37 H18          0.2810    -0.2870    -0.8010 hc         1 ZFR       0.056700
     38 H19         -0.6620    -2.0860     0.6200 hc         1 ZFR       0.044200
     39 H20         -0.3670    -1.1240     2.0590 hc         1 ZFR       0.044200
     40 H21         -2.0440     0.5800     1.3050 ha         1 ZFR       0.123000
     41 H22         -2.8680    -1.9300    -0.2270 ha         1 ZFR       0.123000
     42 H23         -8.2480    -0.7990    -1.7120 ho         1 ZFR       0.425500
     43 H24         -7.2100     2.7340     0.9510 ho         1 ZFR       0.425500
     44 H5           9.5190    -0.3290     0.8570 hc         1 ZFR       0.041033
     45 O6P          2.8330     0.7570    -0.8920 o          1 ZFR      -0.514100
@<TRIPOS>BOND
     1     1     2 ar  
     2     1     6 ar  
     3     1    21 1   
     4     2     3 ar  
     5     2    20 1   
     6     3     4 ar  
     7     3    22 1   
     8     4     5 ar  
     9     4    19 1   
    10     5     6 ar  
    11     5    23 1   
    12     6    18 1   
    13     7     8 1   
    14     7    12 1   
    15     7    13 1   
    16     7    24 1   
    17     8    25 1   
    18     8    26 1   
    19     8    44 1   
    20     9    10 1   
    21     9    14 1   
    22     9    45 2   
    23    10    11 1   
    24    10    27 1   
    25    10    28 1   
    26    11    12 1   
    27    11    29 1   
    28    11    30 1   
    29    12    31 1   
    30    12    32 1   
    31    13    33 1   
    32    14    15 1   
    33    14    34 1   
    34    14    35 1   
    35    15    16 1   
    36    15    36 1   
    37    15    37 1   
    38    16    17 1   
    39    16    38 1   
    40    16    39 1   
    41    17    18 2   
    42    17    40 1   
    43    18    41 1   
    44    19    42 1   
    45    20    43 1   
@<TRIPOS>SUBSTRUCTURE
     1 ZFR         1 TEMP              0 ****  ****    0 ROOT
