@<TRIPOS>MOLECULE
ZFR
   45    45     1     0     0
SMALL
No Charge or Current Charge


@<TRIPOS>ATOM
      1 C1          -3.4950     1.1320     0.8970 ca         1 ZFR      -0.176500
      2 C2          -4.4580     2.1130     0.6240 ca         1 ZFR       0.179100
      3 C3          -5.2130     2.0600    -0.5540 ca         1 ZFR      -0.305000
      4 C4          -5.0000     1.0140    -1.4600 ca         1 ZFR       0.179100
      5 C5          -4.0390     0.0290    -1.1920 ca         1 ZFR      -0.176500
      6 C6          -3.2710     0.0770    -0.0130 ca         1 ZFR       0.025200
      7 C10          5.9040     1.3340    -0.5180 c3         1 ZFR       0.167300
      8 C11          7.2710     1.9610    -0.1850 c3         1 ZFR      -0.126100
      9 C6P          3.1040    -2.9860    -0.3890 c          1 ZFR       0.569100
     10 C7P          4.4040    -2.2990     0.0610 c3         1 ZFR      -0.182400
     11 C8P          4.4720    -0.8310    -0.4220 c3         1 ZFR      -0.061400
     12 C9P          5.7850    -0.1230    -0.0100 c3         1 ZFR      -0.111400
     13 O10          4.8800     2.1370     0.0760 oh         1 ZFR      -0.654000
     14 C5P          1.9620    -3.0880     0.6350 c3         1 ZFR      -0.182400
     15 C4P          0.9040    -1.9790     0.4210 c3         1 ZFR      -0.062400
     16 C3P         -0.2770    -2.0730     1.4100 c3         1 ZFR      -0.047200
     17 C2P         -1.2960    -0.9750     1.1880 c2         1 ZFR      -0.192200
     18 C1P         -2.2590    -0.9910     0.2380 ce         1 ZFR      -0.171200
     19 O4          -5.7300     0.9530    -2.6050 oh         1 ZFR      -0.532600
     20 O2          -4.6630     3.1230     1.5100 oh         1 ZFR      -0.532600
     21 H1          -2.9340     1.1960     1.8230 ha         1 ZFR       0.130500
     22 H2          -5.9590     2.8220    -0.7630 ha         1 ZFR       0.113000
     23 H3          -3.8880    -0.7740    -1.9080 ha         1 ZFR       0.130500
     24 H4           5.7910     1.3300    -1.6120 h1         1 ZFR       0.072700
     25 H6           8.0800     1.3880    -0.6520 hc         1 ZFR       0.041033
     26 H7           7.3260     2.9900    -0.5600 hc         1 ZFR       0.041033
     27 H8           4.4620    -2.2910     1.1560 hc         1 ZFR       0.056700
     28 H9           5.2570    -2.8460    -0.3570 hc         1 ZFR       0.056700
     29 H10          4.3780    -0.8050    -1.5160 hc         1 ZFR       0.060200
     30 H11          3.6160    -0.2770    -0.0170 hc         1 ZFR       0.060200
     31 H12          6.6310    -0.7000    -0.4050 hc         1 ZFR       0.038700
     32 H13          5.8790    -0.1390     1.0830 hc         1 ZFR       0.038700
     33 H14          5.0300     2.1160     1.0460 ho         1 ZFR       0.436000
     34 H15          1.4740    -4.0640     0.5270 hc         1 ZFR       0.058200
     35 H16          2.3600    -2.9750     1.6500 hc         1 ZFR       0.058200
     36 H17          1.3770    -0.9950     0.5260 hc         1 ZFR       0.056700
     37 H18          0.5180    -2.0390    -0.6040 hc         1 ZFR       0.056700
     38 H19         -0.7570    -3.0550     1.3090 hc         1 ZFR       0.044200
     39 H20          0.1080    -2.0200     2.4360 hc         1 ZFR       0.044200
     40 H21         -1.1860    -0.1330     1.8720 ha         1 ZFR       0.173000
     41 H22         -2.3250    -1.8440    -0.4390 ha         1 ZFR       0.173000
     42 H23         -6.3430     1.7180    -2.6140 ho         1 ZFR       0.464500
     43 H24         -5.3680     3.7030     1.1500 ho         1 ZFR       0.464500
     44 H5           7.4450     1.9790     0.8980 hc         1 ZFR       0.041033
     45 O6P          2.9860    -3.4420    -1.5190 o          1 ZFR      -0.514100
@<TRIPOS>BOND
     1     1     2 ar  
     2     1     6 ar  
     3     1    21 1   
     4     2     3 ar  
     5     2    20 1   
     6     3     4 ar  
     7     3    22 1   
     8     4     5 ar  
     9     4    19 1   
    10     5     6 ar  
    11     5    23 1   
    12     6    18 1   
    13     7     8 1   
    14     7    12 1   
    15     7    13 1   
    16     7    24 1   
    17     8    25 1   
    18     8    26 1   
    19     8    44 1   
    20     9    10 1   
    21     9    14 1   
    22     9    45 2   
    23    10    11 1   
    24    10    27 1   
    25    10    28 1   
    26    11    12 1   
    27    11    29 1   
    28    11    30 1   
    29    12    31 1   
    30    12    32 1   
    31    13    33 1   
    32    14    15 1   
    33    14    34 1   
    34    14    35 1   
    35    15    16 1   
    36    15    36 1   
    37    15    37 1   
    38    16    17 1   
    39    16    38 1   
    40    16    39 1   
    41    17    18 2   
    42    17    40 1   
    43    18    41 1   
    44    19    42 1   
    45    20    43 1   
@<TRIPOS>SUBSTRUCTURE
     1 ZFR         1 TEMP              0 ****  ****    0 ROOT
