@<TRIPOS>MOLECULE
ZFS
   48    50     1     0     0
SMALL
abcg2


@<TRIPOS>ATOM
      1 N1          10.0970    -9.0480     3.0230 ns         1 ZFS      -0.487900
      2 C2          10.1200    -9.1690     1.6950 c          1 ZFS       0.502600
      3 O2           9.6500    -6.8060    -2.4710 os         1 ZFS      -0.239200
      4 C3           9.8530    -7.8950     0.9400 ca         1 ZFS       0.312500
      5 O3           7.1420    -1.3190    -4.6150 o          1 ZFS      -0.590100
      6 C4           9.8670    -7.9250    -0.4410 ca         1 ZFS      -0.140000
      7 C5           9.6240    -6.7390    -1.1280 ca         1 ZFS       0.166100
      8 C7           8.1720    -5.2730    -3.5610 ca         1 ZFS      -0.090000
      9 C8           7.9800    -4.1540    -4.3550 ca         1 ZFS      -0.126500
     10 C9           9.0750    -3.4090    -4.7920 ca         1 ZFS      -0.014000
     11 C10          7.9810    -1.3270    -5.4940 c          1 ZFS       0.660100
     12 C11          7.2580     0.7710    -6.5400 ca         1 ZFS      -0.022000
     13 C12          6.8090     1.1890    -7.7900 ca         1 ZFS      -0.129000
     14 C13          6.0410     2.3370    -7.9110 ca         1 ZFS      -0.092000
     15 C14          5.7020     3.0760    -6.7910 ca         1 ZFS      -0.080000
     16 C15          6.1560     2.6590    -5.5440 ca         1 ZFS      -0.174300
     17 C16          6.9330     1.5200    -5.4090 ca         1 ZFS      -0.065000
     18 C17          5.8140     3.4940    -4.3490 c3         1 ZFS       0.356300
     19 C18         10.3580    -3.8120    -4.4290 ca         1 ZFS      -0.126500
     20 C20          9.3770    -5.5820    -0.3990 ca         1 ZFS      -0.228000
     21 C21          9.3860    -5.6760     0.9850 ca         1 ZFS       0.366900
     22 C1          10.3290   -10.1630     3.9080 c3         1 ZFS       0.097300
     23 O1          10.3390   -10.2200     1.1070 o          1 ZFS      -0.605100
     24 C6           9.4550    -5.6600    -3.2110 ca         1 ZFS       0.069100
     25 N3           8.0760    -0.3590    -6.4630 ns         1 ZFS      -0.173000
     26 F1           6.3440     4.7230    -4.4400 f          1 ZFS      -0.112333
     27 F2           4.4890     3.6630    -4.2270 f          1 ZFS      -0.112333
     28 F3           6.2480     2.9690    -3.2010 f          1 ZFS      -0.112333
     29 C19         10.5520    -4.9370    -3.6440 ca         1 ZFS      -0.090000
     30 N4           9.6170    -6.7950     1.6510 nb         1 ZFS      -0.700000
     31 H1           9.9020    -8.1360     3.4050 hn         1 ZFS       0.343500
     32 H2          10.0650    -8.8440    -0.9760 ha         1 ZFS       0.163000
     33 H3           7.3190    -5.8540    -3.2310 ha         1 ZFS       0.134000
     34 H4           6.9760    -3.8830    -4.6460 ha         1 ZFS       0.129500
     35 H5           7.0600     0.6110    -8.6710 ha         1 ZFS       0.117000
     36 H6           5.6990     2.6490    -8.8880 ha         1 ZFS       0.123000
     37 H7           5.0950     3.9660    -6.8980 ha         1 ZFS       0.132000
     38 H8           7.3070     1.2190    -4.4420 ha         1 ZFS       0.151000
     39 H9          11.2160    -3.2410    -4.7630 ha         1 ZFS       0.129500
     40 H10          9.1810    -4.6290    -0.8700 ha         1 ZFS       0.140000
     41 H11          9.1940    -4.7880     1.5770 h4         1 ZFS       0.022100
     42 H12         10.2770    -9.8070     4.9320 h1         1 ZFS       0.040367
     43 H13          9.5790   -10.9440     3.7760 h1         1 ZFS       0.040367
     44 H14         11.3130   -10.6040     3.7470 h1         1 ZFS       0.040367
     45 H15          9.7310    -2.0910    -6.2190 hn         1 ZFS       0.152000
     46 H16          8.6030    -0.5780    -7.2950 hn         1 ZFS       0.152000
     47 H17         11.5540    -5.2450    -3.3720 ha         1 ZFS       0.134000
     48 N2           8.9370    -2.2990    -5.6320 ns         1 ZFS      -0.169000
@<TRIPOS>BOND
     1     1     2 1   
     2     1    22 1   
     3     1    31 1   
     4     2     4 1   
     5     2    23 2   
     6     3     7 1   
     7     3    24 1   
     8     4     6 ar  
     9     4    30 ar  
    10     5    11 2   
    11     6     7 ar  
    12     6    32 1   
    13     7    20 ar  
    14     8     9 ar  
    15     8    24 ar  
    16     8    33 1   
    17     9    10 ar  
    18     9    34 1   
    19    10    19 ar  
    20    10    48 1   
    21    11    25 1   
    22    11    48 1   
    23    12    13 ar  
    24    12    17 ar  
    25    12    25 1   
    26    13    14 ar  
    27    13    35 1   
    28    14    15 ar  
    29    14    36 1   
    30    15    16 ar  
    31    15    37 1   
    32    16    17 ar  
    33    16    18 1   
    34    17    38 1   
    35    18    26 1   
    36    18    27 1   
    37    18    28 1   
    38    19    29 ar  
    39    19    39 1   
    40    20    21 ar  
    41    20    40 1   
    42    21    30 ar  
    43    21    41 1   
    44    22    42 1   
    45    22    43 1   
    46    22    44 1   
    47    24    29 ar  
    48    25    46 1   
    49    29    47 1   
    50    45    48 1   
@<TRIPOS>SUBSTRUCTURE
     1 ZFS         1 TEMP              0 ****  ****    0 ROOT
