@<TRIPOS>MOLECULE
ZFS
   48    50     1     0     0
SMALL
No Charge or Current Charge


@<TRIPOS>ATOM
      1 N1           9.8570    -9.3340     3.1000 ns         1 ZFS      -0.487900
      2 C2           9.6940    -9.3680     1.7270 c          1 ZFS       0.502600
      3 O2          10.1610    -6.7820    -2.4610 os         1 ZFS      -0.239200
      4 C3          10.0700    -8.0770     0.9840 ca         1 ZFS       0.312500
      5 O3           7.1870    -0.9650    -4.1510 o          1 ZFS      -0.590100
      6 C4           9.9380    -8.0150    -0.4170 ca         1 ZFS      -0.140000
      7 C5          10.2740    -6.8360    -1.0910 ca         1 ZFS       0.166100
      8 C7           8.7760    -4.7990    -2.6510 ca         1 ZFS      -0.090000
      9 C8           8.4090    -3.6460    -3.3680 ca         1 ZFS      -0.126500
     10 C9           9.0530    -3.3240    -4.5850 ca         1 ZFS      -0.014000
     11 C10          7.8720    -1.1120    -5.1560 c          1 ZFS       0.660100
     12 C11          7.1900     0.9870    -6.4800 ca         1 ZFS      -0.022000
     13 C12          7.4980     1.6710    -7.6690 ca         1 ZFS      -0.129000
     14 C13          6.8460     2.8710    -7.9920 ca         1 ZFS      -0.092000
     15 C14          5.8770     3.4030    -7.1270 ca         1 ZFS      -0.080000
     16 C15          5.5550     2.7380    -5.9250 ca         1 ZFS      -0.174300
     17 C16          6.2120     1.5260    -5.6130 ca         1 ZFS      -0.065000
     18 C17          4.4910     3.2950    -4.9700 c3         1 ZFS       0.356300
     19 C18         10.0580    -4.1840    -5.0700 ca         1 ZFS      -0.126500
     20 C20         10.7550    -5.7480    -0.3480 ca         1 ZFS      -0.228000
     21 C21         10.8620    -5.8750     1.0420 ca         1 ZFS       0.366900
     22 C1           9.5630   -10.4440     4.0080 c3         1 ZFS       0.097300
     23 O1           9.2760   -10.3770     1.1660 o          1 ZFS      -0.605100
     24 C6           9.7940    -5.6400    -3.1380 ca         1 ZFS       0.069100
     25 N3           7.8900    -0.2270    -6.2250 ns         1 ZFS      -0.173000
     26 F1           4.2270     4.6050    -5.1860 f          1 ZFS      -0.112333
     27 F2           3.3210     2.6310    -5.0980 f          1 ZFS      -0.112333
     28 F3           4.8680     3.1860    -3.6760 f          1 ZFS      -0.112333
     29 C19         10.4250    -5.3370    -4.3540 ca         1 ZFS      -0.090000
     30 N4          10.5280    -7.0060     1.7030 nb         1 ZFS      -0.700000
     31 H1          10.2080    -8.4590     3.4790 hn         1 ZFS       0.343500
     32 H2           9.5760    -8.8740    -0.9740 ha         1 ZFS       0.163000
     33 H3           8.2640    -5.0400    -1.7220 ha         1 ZFS       0.134000
     34 H4           7.6180    -3.0230    -2.9630 ha         1 ZFS       0.129500
     35 H5           8.2470     1.2720    -8.3510 ha         1 ZFS       0.117000
     36 H6           7.0900     3.3900    -8.9170 ha         1 ZFS       0.123000
     37 H7           5.3800     4.3320    -7.4010 ha         1 ZFS       0.132000
     38 H8           5.9430     1.0150    -4.6930 ha         1 ZFS       0.151000
     39 H9          10.5600    -3.9590    -6.0090 ha         1 ZFS       0.129500
     40 H10         11.0480    -4.8210    -0.8300 ha         1 ZFS       0.140000
     41 H11         11.2290    -5.0470     1.6480 h4         1 ZFS       0.022100
     42 H12          9.7830   -10.1420     5.0390 h1         1 ZFS       0.040367
     43 H13          8.5030   -10.7160     3.9280 h1         1 ZFS       0.040367
     44 H14         10.1830   -11.3110     3.7440 h1         1 ZFS       0.040367
     45 H15          9.2360    -2.1370    -6.2440 hn         1 ZFS       0.152000
     46 H16          8.5200    -0.4940    -6.9700 hn         1 ZFS       0.152000
     47 H17         11.2020    -5.9930    -4.7390 ha         1 ZFS       0.134000
     48 N2           8.7350    -2.1780    -5.3660 ns         1 ZFS      -0.169000
@<TRIPOS>BOND
     1     1     2 1   
     2     1    22 1   
     3     1    31 1   
     4     2     4 1   
     5     2    23 2   
     6     3     7 1   
     7     3    24 1   
     8     4     6 ar  
     9     4    30 ar  
    10     5    11 2   
    11     6     7 ar  
    12     6    32 1   
    13     7    20 ar  
    14     8     9 ar  
    15     8    24 ar  
    16     8    33 1   
    17     9    10 ar  
    18     9    34 1   
    19    10    19 ar  
    20    10    48 1   
    21    11    25 1   
    22    11    48 1   
    23    12    13 ar  
    24    12    17 ar  
    25    12    25 1   
    26    13    14 ar  
    27    13    35 1   
    28    14    15 ar  
    29    14    36 1   
    30    15    16 ar  
    31    15    37 1   
    32    16    17 ar  
    33    16    18 1   
    34    17    38 1   
    35    18    26 1   
    36    18    27 1   
    37    18    28 1   
    38    19    29 ar  
    39    19    39 1   
    40    20    21 ar  
    41    20    40 1   
    42    21    30 ar  
    43    21    41 1   
    44    22    42 1   
    45    22    43 1   
    46    22    44 1   
    47    24    29 ar  
    48    25    46 1   
    49    29    47 1   
    50    45    48 1   
@<TRIPOS>SUBSTRUCTURE
     1 ZFS         1 TEMP              0 ****  ****    0 ROOT
