@<TRIPOS>MOLECULE
ZFW
   71    74     1     0     0
SMALL
No Charge or Current Charge


@<TRIPOS>ATOM
      1 C02         13.5480   -87.8060   -19.5710 ca         1 ZFW       0.445900
      2 C04         15.0170   -86.7290   -18.2170 ca         1 ZFW       0.431900
      3 C06         16.2640   -85.2970   -16.4740 ca         1 ZFW       0.281000
      4 C07         17.4900   -85.0490   -17.1170 ca         1 ZFW      -0.120000
      5 C08         18.5700   -84.4470   -16.4370 ca         1 ZFW      -0.054300
      6 C09         19.8690   -84.2180   -17.2060 c3         1 ZFW      -0.048800
      7 C10         18.4170   -84.0630   -15.0780 ca         1 ZFW      -0.070300
      8 C11         19.5550   -83.3970   -14.2680 c6         1 ZFW      -0.021400
      9 C12         19.9740   -84.2470   -13.0400 c6         1 ZFW      -0.072400
     10 C13         21.1000   -83.5520   -12.2370 c6         1 ZFW       0.180300
     11 C15         20.3260   -81.3340   -12.9750 c6         1 ZFW       0.180300
     12 C16         19.1780   -81.9690   -13.7970 c6         1 ZFW      -0.072400
     13 C17         21.7150   -81.4990   -10.9630 c6         1 ZFW       0.369500
     14 C19         23.9770   -80.6050   -10.9850 c6         1 ZFW      -0.009700
     15 C20         24.2750   -81.2080    -9.5780 c6         1 ZFW       0.127300
     16 C21         22.9560   -81.3730    -8.7550 c6         1 ZFW       0.164300
     17 C22         21.9140   -82.2000    -9.5760 c6         1 ZFW       0.148300
     18 C26         25.3030   -80.4330   -11.8070 c          1 ZFW       0.733000
     19 C29         17.1790   -84.2940   -14.4420 ca         1 ZFW      -0.096000
     20 C30         16.1180   -84.9100   -15.1200 ca         1 ZFW       0.050100
     21 C32         14.5590   -86.4520   -14.0300 c3         1 ZFW       0.171300
     22 C33         15.5380   -86.9300   -12.9360 c3         1 ZFW      -0.104600
     23 C34         13.1050   -86.3740   -13.5310 c3         1 ZFW      -0.104600
     24 C36         15.9030   -88.1860   -19.7470 ca         1 ZFW       0.189900
     25 C37         14.6080   -88.4710   -20.2110 ca         1 ZFW      -0.138000
     26 N01         12.2480   -87.9940   -19.9200 nv         1 ZFW      -1.080900
     27 N03         13.7420   -86.9380   -18.5740 nb         1 ZFW      -0.341000
     28 N05         15.1690   -85.8530   -17.1590 nu         1 ZFW      -0.922900
     29 N14         20.6900   -82.1800   -11.8040 n3         1 ZFW      -0.759600
     30 N35         16.1100   -87.3140   -18.7400 nb         1 ZFW      -0.259000
     31 O18         22.9710   -81.4230   -11.6620 os         1 ZFW      -0.442000
     32 O23         20.6370   -82.3290    -8.9060 oh         1 ZFW      -0.718000
     33 O24         23.2750   -81.9870    -7.4920 oh         1 ZFW      -0.663000
     34 O25         25.2280   -80.4160    -8.8350 oh         1 ZFW      -0.794000
     35 O27         25.5260   -81.2640   -12.6810 o          1 ZFW      -0.701000
     36 O28         25.6660   -79.2740   -11.9730 o          1 ZFW      -0.701000
     37 O31         14.9360   -85.1210   -14.4330 os         1 ZFW      -0.378100
     38 Cl38        14.3530   -89.6150   -21.5360 cl         1 ZFW      -0.202000
     39 H071        17.6050   -85.3030   -18.1650 ha         1 ZFW       0.137000
     40 H092        20.1240   -83.1520   -17.2420 hc         1 ZFW       0.045033
     41 H091        20.7040   -84.7540   -16.7400 hc         1 ZFW       0.045033
     42 H093        19.8000   -84.5680   -18.2430 hc         1 ZFW       0.045033
     43 H111        20.4500   -83.2930   -14.8920 hc         1 ZFW       0.057700
     44 H122        19.1150   -84.4190   -12.3770 hc         1 ZFW       0.040950
     45 H121        20.3150   -85.2370   -13.3710 hc         1 ZFW       0.040950
     46 H131        21.3380   -84.1870   -11.3720 h1         1 ZFW       0.046950
     47 H132        22.0040   -83.5080   -12.8630 h1         1 ZFW       0.046950
     48 H151        21.1970   -81.1900   -13.6330 h1         1 ZFW       0.046950
     49 H152        20.0070   -80.3350   -12.6420 h1         1 ZFW       0.046950
     50 H162        18.2680   -81.9910   -13.1830 hc         1 ZFW       0.040950
     51 H161        18.9550   -81.3360   -14.6660 hc         1 ZFW       0.040950
     52 H171        21.3580   -80.4750   -10.7700 h2         1 ZFW       0.040700
     53 H191        23.5510   -79.5990   -10.8530 h1         1 ZFW       0.026700
     54 H201        24.6960   -82.2120    -9.7390 h1         1 ZFW       0.039700
     55 H211        22.5330   -80.3720    -8.5810 h1         1 ZFW       0.032700
     56 H221        22.3440   -83.1970    -9.7480 h1         1 ZFW       0.047700
     57 H291        17.0340   -84.0050   -13.4050 ha         1 ZFW       0.130000
     58 H321        14.6020   -87.1490   -14.8770 h1         1 ZFW       0.041700
     59 H333        15.2280   -87.9060   -12.5460 hc         1 ZFW       0.043367
     60 H331        16.5520   -87.0370   -13.3390 hc         1 ZFW       0.043367
     61 H332        15.5680   -86.2200   -12.1000 hc         1 ZFW       0.043367
     62 H342        12.7570   -87.3620   -13.2060 hc         1 ZFW       0.043367
     63 H341        13.0190   -85.6830   -12.6830 hc         1 ZFW       0.043367
     64 H343        12.4420   -86.0260   -14.3320 hc         1 ZFW       0.043367
     65 H361        16.7820   -88.6580   -20.1810 h4         1 ZFW       0.030100
     66 H011        11.5660   -87.3120   -19.6000 hn         1 ZFW       0.504000
     67 H012        12.0520   -88.4570   -20.8050 hn         1 ZFW       0.504000
     68 H051        14.2840   -85.6650   -16.6910 hn         1 ZFW       0.521000
     69 H231        19.9980   -82.4600    -9.6500 ho         1 ZFW       0.510000
     70 H241        24.1790   -81.6540    -7.2860 ho         1 ZFW       0.452000
     71 H251        24.9860   -79.4630    -8.9510 ho         1 ZFW       0.580000
@<TRIPOS>BOND
     1     1    25 ar  
     2     1    26 1   
     3     1    27 ar  
     4     2    27 ar  
     5     2    28 1   
     6     2    30 ar  
     7     3     4 ar  
     8     3    20 ar  
     9     3    28 1   
    10     4     5 ar  
    11     4    39 1   
    12     5     6 1   
    13     5     7 ar  
    14     6    40 1   
    15     6    41 1   
    16     6    42 1   
    17     7     8 1   
    18     7    19 ar  
    19     8     9 1   
    20     8    12 1   
    21     8    43 1   
    22     9    10 1   
    23     9    44 1   
    24     9    45 1   
    25    10    29 1   
    26    10    46 1   
    27    10    47 1   
    28    11    12 1   
    29    11    29 1   
    30    11    48 1   
    31    11    49 1   
    32    12    50 1   
    33    12    51 1   
    34    13    17 1   
    35    13    29 1   
    36    13    31 1   
    37    13    52 1   
    38    14    15 1   
    39    14    18 1   
    40    14    31 1   
    41    14    53 1   
    42    15    16 1   
    43    15    34 1   
    44    15    54 1   
    45    16    17 1   
    46    16    33 1   
    47    16    55 1   
    48    17    32 1   
    49    17    56 1   
    50    18    35 1   
    51    18    36 1   
    52    19    20 ar  
    53    19    57 1   
    54    20    37 1   
    55    21    22 1   
    56    21    23 1   
    57    21    37 1   
    58    21    58 1   
    59    22    59 1   
    60    22    60 1   
    61    22    61 1   
    62    23    62 1   
    63    23    63 1   
    64    23    64 1   
    65    24    25 ar  
    66    24    30 ar  
    67    24    65 1   
    68    25    38 1   
    69    26    66 1   
    70    26    67 1   
    71    28    68 1   
    72    32    69 1   
    73    33    70 1   
    74    34    71 1   
@<TRIPOS>SUBSTRUCTURE
     1 ZFW         1 TEMP              0 ****  ****    0 ROOT
