@<TRIPOS>MOLECULE
ZFW
   71    74     1     0     0
SMALL
abcg2


@<TRIPOS>ATOM
      1 C02         13.4430   -87.7180   -19.3940 ca         1 ZFW       0.445900
      2 C04         14.9720   -86.6570   -18.0680 ca         1 ZFW       0.431900
      3 C06         16.2910   -85.3150   -16.4230 ca         1 ZFW       0.281000
      4 C07         17.4780   -85.0810   -17.1100 ca         1 ZFW      -0.120000
      5 C08         18.5800   -84.4860   -16.4990 ca         1 ZFW      -0.054300
      6 C09         19.8260   -84.2720   -17.3150 c3         1 ZFW      -0.048800
      7 C10         18.4980   -84.0890   -15.1600 ca         1 ZFW      -0.070300
      8 C11         19.6430   -83.4150   -14.4470 c6         1 ZFW      -0.021400
      9 C12         20.1720   -84.2340   -13.2670 c6         1 ZFW      -0.072400
     10 C13         21.3180   -83.5110   -12.5760 c6         1 ZFW       0.180300
     11 C15         20.4510   -81.3680   -13.2370 c6         1 ZFW       0.180300
     12 C16         19.2780   -82.0100   -13.9590 c6         1 ZFW      -0.072400
     13 C17         21.7310   -81.5300   -11.1890 c6         1 ZFW       0.369500
     14 C19         23.8600   -80.6240   -10.8390 c6         1 ZFW      -0.009700
     15 C20         23.9530   -81.2470    -9.4360 c6         1 ZFW       0.127300
     16 C21         22.5560   -81.4250    -8.8540 c6         1 ZFW       0.164300
     17 C22         21.7070   -82.2290    -9.8210 c6         1 ZFW       0.148300
     18 C26         25.2540   -80.4250   -11.4710 c          1 ZFW       0.733000
     19 C29         17.3090   -84.3250   -14.4750 ca         1 ZFW      -0.096000
     20 C30         16.2220   -84.9310   -15.0760 ca         1 ZFW       0.050100
     21 C32         14.8590   -86.4250   -13.8260 c3         1 ZFW       0.171300
     22 C33         15.6890   -86.6170   -12.5700 c3         1 ZFW      -0.104600
     23 C34         13.3740   -86.5560   -13.5590 c3         1 ZFW      -0.104600
     24 C36         15.7880   -87.9360   -19.7280 ca         1 ZFW       0.189900
     25 C37         14.5210   -88.2720   -20.1250 ca         1 ZFW      -0.138000
     26 N01         12.1690   -87.9750   -19.6950 nv         1 ZFW      -1.080900
     27 N03         13.6980   -86.9150   -18.3680 nb         1 ZFW      -0.341000
     28 N05         15.1330   -85.8340   -16.9970 nu         1 ZFW      -0.922900
     29 N14         20.8810   -82.1970   -12.1210 n3         1 ZFW      -0.759600
     30 N35         16.0400   -87.1310   -18.7000 nb         1 ZFW      -0.259000
     31 O18         23.0520   -81.4190   -11.6710 os         1 ZFW      -0.442000
     32 O23         20.3860   -82.3120    -9.3540 oh         1 ZFW      -0.718000
     33 O24         22.5830   -82.0870    -7.6110 oh         1 ZFW      -0.663000
     34 O25         24.7030   -80.4400    -8.5700 oh         1 ZFW      -0.794000
     35 O27         25.4110   -80.6850   -12.6650 o          1 ZFW      -0.701000
     36 O28         26.1230   -79.9760   -10.6740 o          1 ZFW      -0.701000
     37 O31         15.0610   -85.1120   -14.3840 os         1 ZFW      -0.378100
     38 CL38        14.2430   -89.3210   -21.4700 cl         1 ZFW      -0.202000
     39 H071        17.5490   -85.3630   -18.1500 ha         1 ZFW       0.137000
     40 H092        20.0890   -83.2150   -17.3880 hc         1 ZFW       0.045033
     41 H091        20.6880   -84.7870   -16.8870 hc         1 ZFW       0.045033
     42 H093        19.6940   -84.6450   -18.3300 hc         1 ZFW       0.045033
     43 H111        20.4750   -83.2980   -15.1490 hc         1 ZFW       0.057700
     44 H122        19.3710   -84.4100   -12.5420 hc         1 ZFW       0.040950
     45 H121        20.5170   -85.2120   -13.6120 hc         1 ZFW       0.040950
     46 H131        21.6570   -84.1060   -11.7270 h1         1 ZFW       0.046950
     47 H132        22.1680   -83.4350   -13.2700 h1         1 ZFW       0.046950
     48 H151        21.2680   -81.2040   -13.9570 h1         1 ZFW       0.046950
     49 H152        20.1590   -80.3890   -12.8540 h1         1 ZFW       0.046950
     50 H162        18.4220   -82.0580   -13.2800 hc         1 ZFW       0.040950
     51 H161        18.9830   -81.3820   -14.8030 hc         1 ZFW       0.040950
     52 H171        21.3110   -80.5210   -11.0420 h2         1 ZFW       0.040700
     53 H191        23.4100   -79.6200   -10.7250 h1         1 ZFW       0.026700
     54 H201        24.4060   -82.2480    -9.5440 h1         1 ZFW       0.039700
     55 H211        22.1040   -80.4230    -8.7510 h1         1 ZFW       0.032700
     56 H221        22.1590   -83.2290    -9.9160 h1         1 ZFW       0.047700
     57 H291        17.2100   -84.0260   -13.4370 ha         1 ZFW       0.130000
     58 H321        15.1550   -87.1760   -14.5680 h1         1 ZFW       0.041700
     59 H333        15.5110   -87.6120   -12.1600 hc         1 ZFW       0.043367
     60 H331        16.7580   -86.5320   -12.7700 hc         1 ZFW       0.043367
     61 H332        15.4210   -85.8840   -11.8070 hc         1 ZFW       0.043367
     62 H342        13.1550   -87.5410   -13.1480 hc         1 ZFW       0.043367
     63 H341        13.0370   -85.8090   -12.8370 hc         1 ZFW       0.043367
     64 H343        12.7930   -86.4400   -14.4750 hc         1 ZFW       0.043367
     65 H361        16.6460   -88.3340   -20.2590 h4         1 ZFW       0.030100
     66 H011        11.4350   -87.5440   -19.1600 hn         1 ZFW       0.504000
     67 H012        11.9100   -88.5580   -20.4720 hn         1 ZFW       0.504000
     68 H051        14.2710   -85.6010   -16.5270 hn         1 ZFW       0.521000
     69 H231        19.8470   -82.5240   -10.1280 ho         1 ZFW       0.510000
     70 H241        23.1490   -81.5800    -7.0210 ho         1 ZFW       0.452000
     71 H251        25.4420   -80.1260    -9.1480 ho         1 ZFW       0.580000
@<TRIPOS>BOND
     1     1    25 ar  
     2     1    26 1   
     3     1    27 ar  
     4     2    27 ar  
     5     2    28 1   
     6     2    30 ar  
     7     3     4 ar  
     8     3    20 ar  
     9     3    28 1   
    10     4     5 ar  
    11     4    39 1   
    12     5     6 1   
    13     5     7 ar  
    14     6    40 1   
    15     6    41 1   
    16     6    42 1   
    17     7     8 1   
    18     7    19 ar  
    19     8     9 1   
    20     8    12 1   
    21     8    43 1   
    22     9    10 1   
    23     9    44 1   
    24     9    45 1   
    25    10    29 1   
    26    10    46 1   
    27    10    47 1   
    28    11    12 1   
    29    11    29 1   
    30    11    48 1   
    31    11    49 1   
    32    12    50 1   
    33    12    51 1   
    34    13    17 1   
    35    13    29 1   
    36    13    31 1   
    37    13    52 1   
    38    14    15 1   
    39    14    18 1   
    40    14    31 1   
    41    14    53 1   
    42    15    16 1   
    43    15    34 1   
    44    15    54 1   
    45    16    17 1   
    46    16    33 1   
    47    16    55 1   
    48    17    32 1   
    49    17    56 1   
    50    18    35 1   
    51    18    36 1   
    52    19    20 ar  
    53    19    57 1   
    54    20    37 1   
    55    21    22 1   
    56    21    23 1   
    57    21    37 1   
    58    21    58 1   
    59    22    59 1   
    60    22    60 1   
    61    22    61 1   
    62    23    62 1   
    63    23    63 1   
    64    23    64 1   
    65    24    25 ar  
    66    24    30 ar  
    67    24    65 1   
    68    25    38 1   
    69    26    66 1   
    70    26    67 1   
    71    28    68 1   
    72    32    69 1   
    73    33    70 1   
    74    34    71 1   
@<TRIPOS>SUBSTRUCTURE
     1 ZFW         1 TEMP              0 ****  ****    0 ROOT
