@<TRIPOS>MOLECULE
ZFY
   53    56     1     0     0
SMALL
bcc


@<TRIPOS>ATOM
      1 N1         127.7760   149.7290   145.7880 nb         1 ZFY      -0.629000
      2 N3         126.6210   143.7940   146.1890 nb         1 ZFY      -0.742000
      3 C4         127.5580   147.3990   146.2310 cp         1 ZFY       0.385500
      4 C5         130.9740   148.2450   147.0510 c3         1 ZFY       0.639600
      5 C6         126.7360   146.1840   146.2600 cp         1 ZFY      -0.320800
      6 C7         125.3500   146.2240   146.4080 ca         1 ZFY      -0.050000
      7 C8         124.6140   145.0590   146.4470 ca         1 ZFY      -0.272300
      8 C10        127.3110   144.9190   146.1550 ca         1 ZFY       0.487200
      9 C13        121.5660   140.5850   146.7140 c3         1 ZFY      -0.081100
     10 C15        123.0580   139.2550   144.6470 cc         1 ZFY      -0.216400
     11 C17        127.6360   139.4350   141.8280 cx         1 ZFY      -0.346900
     12 C20        123.3830   142.2870   146.5230 c          1 ZFY       0.687100
     13 C1         129.5530   148.4160   146.5900 ca         1 ZFY       0.191300
     14 C11        123.0780   140.7860   146.6960 c3         1 ZFY      -0.142300
     15 C12        123.7110   139.9730   145.5900 cd         1 ZFY       0.372600
     16 C14        123.6520   140.3330   148.0520 c3         1 ZFY      -0.081100
     17 C16        125.4630   139.1130   144.5630 cc         1 ZFY       0.678300
     18 C18        128.8040   140.3620   141.9400 cx         1 ZFY      -0.059400
     19 C19        128.7650   139.3520   140.8450 cx         1 ZFY      -0.059400
     20 C2         129.0390   149.6370   146.1920 ca         1 ZFY       0.332900
     21 C3         127.0470   148.6330   145.7980 ca         1 ZFY       0.318900
     22 C9         125.3000   143.8450   146.3380 ca         1 ZFY       0.571200
     23 F1         131.6640   149.3830   146.9810 f          1 ZFY      -0.224633
     24 F2         131.0190   147.8240   148.3170 f          1 ZFY      -0.224633
     25 F3         131.6130   147.3360   146.3110 f          1 ZFY      -0.224633
     26 N2         128.8240   147.3130   146.6130 nb         1 ZFY      -0.611000
     27 N4         124.7060   142.5950   146.3920 ns         1 ZFY      -0.551400
     28 N5         125.0810   139.8910   145.5220 nd         1 ZFY      -0.726000
     29 N6         126.7970   138.8580   144.3470 nu         1 ZFY      -0.813800
     30 O1         126.4590   137.2040   142.5150 o          1 ZFY      -0.589800
     31 O2         128.7680   137.6760   143.4050 o          1 ZFY      -0.589800
     32 O3         122.5050   143.1240   146.5480 o          1 ZFY      -0.576100
     33 S1         124.1770   138.4050   143.6470 ss         1 ZFY      -0.093300
     34 S2         127.4590   138.1400   142.9960 s6         1 ZFY       1.298900
     35 H7         124.8280   147.1660   146.5180 ha         1 ZFY       0.138000
     36 H8         123.5460   145.0990   146.5700 ha         1 ZFY       0.179000
     37 H10        128.3830   144.8170   146.0300 h4         1 ZFY       0.037100
     38 H131       121.1150   141.1390   147.5350 hc         1 ZFY       0.049867
     39 H132       121.0890   140.9100   145.7900 hc         1 ZFY       0.049867
     40 H133       121.3390   139.5290   146.8640 hc         1 ZFY       0.049867
     41 H15        121.9980   139.1540   144.4790 h4         1 ZFY       0.186000
     42 H17        126.6750   139.8210   141.5040 h1         1 ZFY       0.134700
     43 H141       123.2190   140.9220   148.8620 hc         1 ZFY       0.049867
     44 H142       123.3920   139.2880   148.2220 hc         1 ZFY       0.049867
     45 H143       124.7350   140.4230   148.1070 hc         1 ZFY       0.049867
     46 H182       129.5090   140.2050   142.7460 hc         1 ZFY       0.090700
     47 H183       128.6080   141.4000   141.7060 hc         1 ZFY       0.090700
     48 H193       128.5370   139.6740   139.8380 hc         1 ZFY       0.090700
     49 H192       129.4420   138.5110   140.9100 hc         1 ZFY       0.090700
     50 H2         129.6280   150.5440   146.1860 h4         1 ZFY       0.050100
     51 H3         126.0280   148.7210   145.4410 h4         1 ZFY       0.038100
     52 H4         125.3530   141.8200   146.2800 hn         1 ZFY       0.365500
     53 H6         127.4390   139.3800   144.9340 hn         1 ZFY       0.470800
@<TRIPOS>BOND
     1     1    20 ar  
     2     1    21 ar  
     3     2     8 ar  
     4     2    22 ar  
     5     3     5 1   
     6     3    21 ar  
     7     3    26 ar  
     8     4    13 1   
     9     4    23 1   
    10     4    24 1   
    11     4    25 1   
    12     5     6 ar  
    13     5     8 ar  
    14     6     7 ar  
    15     6    35 1   
    16     7    22 ar  
    17     7    36 1   
    18     8    37 1   
    19     9    14 1   
    20     9    38 1   
    21     9    39 1   
    22     9    40 1   
    23    10    15 2   
    24    10    33 1   
    25    10    41 1   
    26    11    18 1   
    27    11    19 1   
    28    11    34 1   
    29    11    42 1   
    30    12    14 1   
    31    12    27 1   
    32    12    32 2   
    33    13    20 ar  
    34    13    26 ar  
    35    14    15 1   
    36    14    16 1   
    37    15    28 1   
    38    16    43 1   
    39    16    44 1   
    40    16    45 1   
    41    17    28 2   
    42    17    29 1   
    43    17    33 1   
    44    18    19 1   
    45    18    46 1   
    46    18    47 1   
    47    19    48 1   
    48    19    49 1   
    49    20    50 1   
    50    21    51 1   
    51    22    27 1   
    52    27    52 1   
    53    29    34 1   
    54    29    53 1   
    55    30    34 2   
    56    31    34 2   
@<TRIPOS>SUBSTRUCTURE
     1 ZFY         1 TEMP              0 ****  ****    0 ROOT
