@<TRIPOS>MOLECULE
ZFY
   53    56     1     0     0
SMALL
No Charge or Current Charge


@<TRIPOS>ATOM
      1 N1         128.8210   149.3650   144.9260 nb         1 ZFY      -0.629000
      2 N3         126.4350   144.1990   147.5040 nb         1 ZFY      -0.742000
      3 C4         128.1010   147.3180   146.0950 cp         1 ZFY       0.385500
      4 C5         130.4970   149.0990   148.3510 c3         1 ZFY       0.275700
      5 C6         127.2950   146.0520   146.1560 cp         1 ZFY      -0.255500
      6 C7         126.6570   145.5030   145.0130 ca         1 ZFY      -0.032000
      7 C8         125.9210   144.3180   145.1460 ca         1 ZFY      -0.189000
      8 C10        127.1470   145.3430   147.3760 ca         1 ZFY       0.421900
      9 C13        122.1380   140.6030   146.8010 c3         1 ZFY      -0.081100
     10 C15        123.2150   138.5370   144.9980 cc         1 ZFY      -0.278000
     11 C17        126.0630   139.5560   141.8210 cx         1 ZFY      -0.457700
     12 C20        124.1770   141.8540   145.9990 c          1 ZFY       0.620100
     13 C1         129.6130   148.7470   147.1460 ca         1 ZFY       0.191300
     14 C11        123.6820   140.5120   146.6080 c3         1 ZFY      -0.142300
     15 C12        124.0670   139.4170   145.6350 cd         1 ZFY       0.307300
     16 C14        124.3140   140.1980   148.0030 c3         1 ZFY      -0.081100
     17 C16        125.5310   138.3000   144.4330 cc         1 ZFY       0.678300
     18 C18        126.2360   140.9820   142.3100 cx         1 ZFY      -0.059400
     19 C19        126.6020   140.6210   140.8860 cx         1 ZFY      -0.059400
     20 C2         129.5840   149.6170   146.0230 ca         1 ZFY       0.332900
     21 C3         128.0870   148.2170   144.9740 ca         1 ZFY       0.318900
     22 C9         125.8330   143.7100   146.4080 ca         1 ZFY       0.505900
     23 F1         131.8020   149.1820   148.0020 f          1 ZFY      -0.103333
     24 F2         130.1570   150.2950   148.8840 f          1 ZFY      -0.103333
     25 F3         130.4200   148.1910   149.3540 f          1 ZFY      -0.103333
     26 N2         128.8700   147.5990   147.1800 nb         1 ZFY      -0.611000
     27 N4         125.1520   142.5280   146.6990 ns         1 ZFY      -0.317900
     28 N5         125.4080   139.2550   145.3170 nd         1 ZFY      -0.726000
     29 N6         126.7750   138.0430   144.0320 nu         1 ZFY      -0.869000
     30 O1         126.7570   136.9460   141.8070 o          1 ZFY      -0.519000
     31 O2         128.5360   138.6590   142.4330 o          1 ZFY      -0.519000
     32 O3         123.7000   142.2960   144.9610 o          1 ZFY      -0.576100
     33 S1         124.0840   137.4560   143.9450 ss         1 ZFY       0.051600
     34 S2         127.1470   138.2010   142.4490 s6         1 ZFY       1.268100
     35 H7         126.7350   145.9690   144.0340 ha         1 ZFY       0.120000
     36 H8         125.4440   143.8800   144.2760 ha         1 ZFY       0.161000
     37 H10        127.6070   145.7010   148.2970 h4         1 ZFY       0.037100
     38 H131       121.8780   141.4260   147.4770 hc         1 ZFY       0.049867
     39 H132       121.6260   140.7810   145.8470 hc         1 ZFY       0.049867
     40 H133       121.7380   139.6760   147.2310 hc         1 ZFY       0.049867
     41 H15        122.1400   138.4530   145.0720 h4         1 ZFY       0.168000
     42 H17        125.0600   139.1660   141.6600 h1         1 ZFY       0.134700
     43 H141       124.0560   140.9690   148.7400 hc         1 ZFY       0.049867
     44 H142       123.9450   139.2370   148.3840 hc         1 ZFY       0.049867
     45 H143       125.4080   140.1280   147.9480 hc         1 ZFY       0.049867
     46 H182       127.0490   141.2040   142.9980 hc         1 ZFY       0.090700
     47 H183       125.3390   141.5780   142.4680 hc         1 ZFY       0.090700
     48 H193       125.9500   140.9810   140.0920 hc         1 ZFY       0.090700
     49 H192       127.6590   140.6050   140.6270 hc         1 ZFY       0.090700
     50 H2         130.1800   150.5290   146.0060 h4         1 ZFY       0.050100
     51 H3         127.4680   148.0190   144.1020 h4         1 ZFY       0.038100
     52 H4         125.4350   142.1030   147.5690 hn         1 ZFY       0.199000
     53 H6         127.3920   138.7080   144.4610 hn         1 ZFY       0.526000
@<TRIPOS>BOND
     1     1    20 ar  
     2     1    21 ar  
     3     2     8 ar  
     4     2    22 ar  
     5     3     5 1   
     6     3    21 ar  
     7     3    26 ar  
     8     4    13 1   
     9     4    23 1   
    10     4    24 1   
    11     4    25 1   
    12     5     6 ar  
    13     5     8 ar  
    14     6     7 ar  
    15     6    35 1   
    16     7    22 ar  
    17     7    36 1   
    18     8    37 1   
    19     9    14 1   
    20     9    38 1   
    21     9    39 1   
    22     9    40 1   
    23    10    15 2   
    24    10    33 1   
    25    10    41 1   
    26    11    18 1   
    27    11    19 1   
    28    11    34 1   
    29    11    42 1   
    30    12    14 1   
    31    12    27 1   
    32    12    32 2   
    33    13    20 ar  
    34    13    26 ar  
    35    14    15 1   
    36    14    16 1   
    37    15    28 1   
    38    16    43 1   
    39    16    44 1   
    40    16    45 1   
    41    17    28 2   
    42    17    29 1   
    43    17    33 1   
    44    18    19 1   
    45    18    46 1   
    46    18    47 1   
    47    19    48 1   
    48    19    49 1   
    49    20    50 1   
    50    21    51 1   
    51    22    27 1   
    52    27    52 1   
    53    29    34 1   
    54    29    53 1   
    55    30    34 2   
    56    31    34 2   
@<TRIPOS>SUBSTRUCTURE
     1 ZFY         1 TEMP              0 ****  ****    0 ROOT
