@<TRIPOS>MOLECULE
ZG0
   22    22     1     0     0
SMALL
No Charge or Current Charge


@<TRIPOS>ATOM
      1 C10          2.1560   -22.7390    53.5540 c3         1 ZG0      -0.177100
      2 C02         -2.7400   -20.8730    50.5780 ca         1 ZG0      -0.049300
      3 C03         -2.6930   -19.4880    50.3390 ca         1 ZG0      -0.138000
      4 C04         -1.5960   -18.7330    50.7830 ca         1 ZG0      -0.080000
      5 C05         -0.5430   -19.3610    51.4670 ca         1 ZG0      -0.171000
      6 C06         -0.5710   -20.7460    51.7150 ca         1 ZG0      -0.019000
      7 N07          0.5340   -21.3090    52.4120 ns         1 ZG0      -0.149000
      8 C08          0.8230   -22.6040    52.8220 c          1 ZG0       0.603100
      9 O09          0.1000   -23.5750    52.6330 o          1 ZG0      -0.589100
     10 C12         -1.6790   -21.4980    51.2630 ca         1 ZG0      -0.134000
     11 H1           2.3640   -23.7680    53.8680 hc         1 ZG0       0.063367
     12 H2           2.9540   -22.3410    52.9170 hc         1 ZG0       0.063367
     13 H3           2.1690   -22.0460    54.4030 hc         1 ZG0       0.063367
     14 H4          -3.7080   -22.1600    49.1260 hc         1 ZG0       0.044367
     15 H5          -4.1710   -22.4940    50.8030 hc         1 ZG0       0.044367
     16 H6          -4.8220   -21.0750    49.9740 hc         1 ZG0       0.044367
     17 H7          -3.5040   -18.9960    49.8070 ha         1 ZG0       0.113000
     18 H8          -1.5630   -17.6620    50.5960 ha         1 ZG0       0.112000
     19 H9           0.3010   -18.7640    51.8060 ha         1 ZG0       0.107000
     20 H10          1.2460   -20.6330    52.6560 hn         1 ZG0       0.147000
     21 H11         -1.7360   -22.5680    51.4310 ha         1 ZG0       0.148000
     22 C01         -3.9250   -21.6950    50.0940 c3         1 ZG0      -0.048800
@<TRIPOS>BOND
     1     1     8 1   
     2     1    11 1   
     3     1    12 1   
     4     1    13 1   
     5     2     3 ar  
     6     2    10 ar  
     7     2    22 1   
     8     3     4 ar  
     9     3    17 1   
    10     4     5 ar  
    11     4    18 1   
    12     5     6 ar  
    13     5    19 1   
    14     6     7 1   
    15     6    10 ar  
    16     7     8 1   
    17     7    20 1   
    18     8     9 2   
    19    10    21 1   
    20    14    22 1   
    21    15    22 1   
    22    16    22 1   
@<TRIPOS>SUBSTRUCTURE
     1 ZG0         1 TEMP              0 ****  ****    0 ROOT
