@<TRIPOS>MOLECULE
ZG0
   22    22     1     0     0
SMALL
abcg2


@<TRIPOS>ATOM
      1 C10          2.0650   -22.7070    53.5890 c3         1 ZG0      -0.177100
      2 C02         -2.7270   -20.8710    50.6230 ca         1 ZG0      -0.049300
      3 C03         -2.6360   -19.5270    50.2650 ca         1 ZG0      -0.138000
      4 C04         -1.5080   -18.7870    50.6060 ca         1 ZG0      -0.080000
      5 C05         -0.4650   -19.3740    51.3040 ca         1 ZG0      -0.171000
      6 C06         -0.5450   -20.7230    51.6720 ca         1 ZG0      -0.019000
      7 N07          0.5430   -21.2470    52.3950 ns         1 ZG0      -0.149000
      8 C08          0.7840   -22.5230    52.8070 c          1 ZG0       0.603100
      9 O09          0.0370   -23.4700    52.5780 o          1 ZG0      -0.589100
     10 C12         -1.6770   -21.4640    51.3300 ca         1 ZG0      -0.134000
     11 H1           2.6750   -23.4570    53.0840 hc         1 ZG0       0.063367
     12 H2           2.6410   -21.7910    53.7020 hc         1 ZG0       0.063367
     13 H3           1.8120   -23.0940    54.5770 hc         1 ZG0       0.063367
     14 H4          -3.7320   -22.2620    49.3270 hc         1 ZG0       0.044367
     15 H5          -4.1830   -22.4100    51.0220 hc         1 ZG0       0.044367
     16 H6          -4.7960   -21.0590    50.0530 hc         1 ZG0       0.044367
     17 H7          -3.4480   -19.0590    49.7220 ha         1 ZG0       0.113000
     18 H8          -1.4410   -17.7420    50.3290 ha         1 ZG0       0.112000
     19 H9           0.4110   -18.7970    51.5730 ha         1 ZG0       0.107000
     20 H10          1.2540   -20.5710    52.6310 hn         1 ZG0       0.147000
     21 H11         -1.7410   -22.5000    51.6180 ha         1 ZG0       0.148000
     22 C01         -3.9290   -21.6930    50.2400 c3         1 ZG0      -0.048800
@<TRIPOS>BOND
     1     1     8 1   
     2     1    11 1   
     3     1    12 1   
     4     1    13 1   
     5     2     3 ar  
     6     2    10 ar  
     7     2    22 1   
     8     3     4 ar  
     9     3    17 1   
    10     4     5 ar  
    11     4    18 1   
    12     5     6 ar  
    13     5    19 1   
    14     6     7 1   
    15     6    10 ar  
    16     7     8 1   
    17     7    20 1   
    18     8     9 2   
    19    10    21 1   
    20    14    22 1   
    21    15    22 1   
    22    16    22 1   
@<TRIPOS>SUBSTRUCTURE
     1 ZG0         1 TEMP              0 ****  ****    0 ROOT
