@<TRIPOS>MOLECULE
ZG1
   58    62     1     0     0
SMALL
No Charge or Current Charge


@<TRIPOS>ATOM
      1 C1          41.1290    45.6110    63.0980 c3         1 ZG1      -0.112100
      2 C2          41.7220    47.0320    63.0490 c3         1 ZG1       0.097600
      3 N3          43.1770    47.0400    62.8220 na         1 ZG1      -0.027100
      4 N4          43.7590    47.1030    61.5520 nc         1 ZG1      -0.526100
      5 C5          45.0720    47.0760    61.8100 cd         1 ZG1       0.383800
      6 C6          45.3240    46.9920    63.2230 ca         1 ZG1      -0.365900
      7 C7          46.5080    46.9550    63.9300 ca         1 ZG1       0.510000
      8 N8          47.7210    46.9610    63.2760 nu         1 ZG1      -0.936200
      9 C9          48.1210    45.8830    62.3720 c6         1 ZG1       0.233500
     10 C10         48.9550    44.8400    63.1510 c6         1 ZG1      -0.131900
     11 C11         49.5220    43.7800    62.1810 c6         1 ZG1       0.154600
     12 O12         50.2830    44.4280    61.1400 os         1 ZG1      -0.456000
     13 C13         49.5140    45.3410    60.3270 c6         1 ZG1       0.154600
     14 C14         48.9430    46.4760    61.2080 c6         1 ZG1      -0.131900
     15 C15         46.4240    46.9200    65.3230 ca         1 ZG1      -0.401500
     16 C16         45.1440    46.9160    65.9000 ca         1 ZG1       0.467900
     17 N17         44.0000    46.9440    65.1780 nb         1 ZG1      -0.724000
     18 C18         44.1210    46.9830    63.8410 ca         1 ZG1       0.430500
     19 C19         47.5850    46.9220    66.1910 cc         1 ZG1       0.619500
     20 O20         47.4390    46.6240    67.5130 os         1 ZG1      -0.116700
     21 N21         48.7400    46.6660    68.0590 nc         1 ZG1      -0.372300
     22 C22         49.5010    46.9760    67.0230 cd         1 ZG1       0.590300
     23 C23         50.9730    47.1250    67.1300 c3         1 ZG1      -0.185700
     24 N24         48.8300    47.1610    65.8410 nd         1 ZG1      -0.814000
     25 N25         52.2440    46.0450    65.2180 n          1 ZG1      -0.414800
     26 C26         51.6450    45.9210    66.4900 c          1 ZG1       0.612100
     27 C27         52.1700    47.2530    64.3640 c5         1 ZG1       0.100500
     28 C28         52.9440    44.9210    64.5620 c5         1 ZG1       0.100500
     29 O29         51.6810    44.8520    67.0860 o          1 ZG1      -0.606100
     30 C30         52.6790    46.7200    63.0000 c5         1 ZG1      -0.093900
     31 C31         53.7140    45.6550    63.4360 c5         1 ZG1      -0.093900
     32 H1          40.0470    45.6550    63.2640 hc         1 ZG1       0.049367
     33 H1A         41.3120    45.0840    62.1530 hc         1 ZG1       0.049367
     34 H1B         41.5800    45.0320    63.9120 hc         1 ZG1       0.049367
     35 H2          41.2390    47.6000    62.2440 h1         1 ZG1       0.070700
     36 H2A         41.5080    47.5480    63.9940 h1         1 ZG1       0.070700
     37 H5          45.7690    47.1240    60.9830 h4         1 ZG1       0.044800
     38 HN8         48.4440    47.1950    63.9690 hn         1 ZG1       0.541000
     39 H9          47.2390    45.3800    61.9450 h1         1 ZG1       0.065700
     40 H10         49.7850    45.3280    63.6770 hc         1 ZG1       0.063700
     41 H10A        48.3350    44.3530    63.9160 hc         1 ZG1       0.063700
     42 H11         50.1780    43.0850    62.7250 h1         1 ZG1       0.051200
     43 H11A        48.7060    43.1970    61.7290 h1         1 ZG1       0.051200
     44 H13         50.1640    45.7610    59.5470 h1         1 ZG1       0.051200
     45 H13A        48.6990    44.7910    59.8340 h1         1 ZG1       0.051200
     46 H14         48.3140    47.1390    60.6000 hc         1 ZG1       0.063700
     47 H14A        49.7670    47.0900    61.5950 hc         1 ZG1       0.063700
     48 H16         45.0120    46.8990    66.9820 h4         1 ZG1       0.036100
     49 H23         51.2670    48.0610    66.6510 hc         1 ZG1       0.087200
     50 H23A        51.2540    47.1580    68.1880 hc         1 ZG1       0.087200
     51 H27         51.1500    47.6540    64.2850 h1         1 ZG1       0.053700
     52 H27A        52.8280    48.0410    64.7550 h1         1 ZG1       0.053700
     53 H28         53.6230    44.3920    65.2450 h1         1 ZG1       0.053700
     54 H28A        52.2220    44.2000    64.1560 h1         1 ZG1       0.053700
     55 H30         51.8670    46.2600    62.4280 hc         1 ZG1       0.056700
     56 H30A        53.1130    47.5090    62.3760 hc         1 ZG1       0.056700
     57 H31         54.6280    46.1230    63.8210 hc         1 ZG1       0.056700
     58 H31A        54.0040    44.9830    62.6200 hc         1 ZG1       0.056700
@<TRIPOS>BOND
     1     1     2 1   
     2     1    32 1   
     3     1    33 1   
     4     1    34 1   
     5     2     3 1   
     6     2    35 1   
     7     2    36 1   
     8     3     4 1   
     9     3    18 1   
    10     4     5 2   
    11     5     6 1   
    12     5    37 1   
    13     6     7 ar  
    14     6    18 ar  
    15     7     8 1   
    16     7    15 ar  
    17     8     9 1   
    18     8    38 1   
    19     9    10 1   
    20     9    14 1   
    21     9    39 1   
    22    10    11 1   
    23    10    40 1   
    24    10    41 1   
    25    11    12 1   
    26    11    42 1   
    27    11    43 1   
    28    12    13 1   
    29    13    14 1   
    30    13    44 1   
    31    13    45 1   
    32    14    46 1   
    33    14    47 1   
    34    15    16 ar  
    35    15    19 1   
    36    16    17 ar  
    37    16    48 1   
    38    17    18 ar  
    39    19    20 1   
    40    19    24 2   
    41    20    21 1   
    42    21    22 2   
    43    22    23 1   
    44    22    24 1   
    45    23    26 1   
    46    23    49 1   
    47    23    50 1   
    48    25    26 1   
    49    25    27 1   
    50    25    28 1   
    51    26    29 2   
    52    27    30 1   
    53    27    51 1   
    54    27    52 1   
    55    28    31 1   
    56    28    53 1   
    57    28    54 1   
    58    30    31 1   
    59    30    55 1   
    60    30    56 1   
    61    31    57 1   
    62    31    58 1   
@<TRIPOS>SUBSTRUCTURE
     1 ZG1         1 TEMP              0 ****  ****    0 ROOT
