@<TRIPOS>MOLECULE
ZG1
   58    62     1     0     0
SMALL
abcg2


@<TRIPOS>ATOM
      1 C1          41.1200    45.8580    63.3470 c3         1 ZG1      -0.112100
      2 C2          41.9160    47.1050    62.9840 c3         1 ZG1       0.097600
      3 N3          43.3370    46.8310    62.8390 na         1 ZG1      -0.027100
      4 N4          43.8370    46.3320    61.6790 nc         1 ZG1      -0.526100
      5 C5          45.1240    46.1190    61.8770 cd         1 ZG1       0.383800
      6 C6          45.5030    46.4740    63.2030 ca         1 ZG1      -0.365900
      7 C7          46.6840    46.4950    63.9960 ca         1 ZG1       0.510000
      8 N8          47.8760    46.0450    63.5970 nu         1 ZG1      -0.936200
      9 C9          48.2180    45.4410    62.3190 c6         1 ZG1       0.233500
     10 C10         49.3320    44.4160    62.5290 c6         1 ZG1      -0.131900
     11 C11         49.8140    43.8680    61.1930 c6         1 ZG1       0.154600
     12 O12         50.2330    44.9080    60.3110 os         1 ZG1      -0.456000
     13 C13         49.1690    45.8170    60.0290 c6         1 ZG1       0.154600
     14 C14         48.6620    46.4920    61.2950 c6         1 ZG1      -0.131900
     15 C15         46.5020    47.0330    65.3160 ca         1 ZG1      -0.401500
     16 C16         45.2230    47.4490    65.7470 ca         1 ZG1       0.467900
     17 N17         44.1160    47.4110    65.0300 nb         1 ZG1      -0.724000
     18 C18         44.3000    46.9350    63.7850 ca         1 ZG1       0.430500
     19 C19         47.6070    47.1540    66.2250 cc         1 ZG1       0.619500
     20 O20         47.3950    47.5500    67.4960 os         1 ZG1      -0.116700
     21 N21         48.6590    47.5780    68.1340 nc         1 ZG1      -0.372300
     22 C22         49.4840    47.2100    67.1960 cd         1 ZG1       0.590300
     23 C23         50.9600    47.1320    67.4000 c3         1 ZG1      -0.185700
     24 N24         48.8820    46.9310    65.9990 nd         1 ZG1      -0.814000
     25 N25         52.1050    46.0830    65.5040 n          1 ZG1      -0.414800
     26 C26         51.5470    45.9050    66.7070 c          1 ZG1       0.612100
     27 C27         52.1440    47.3350    64.7250 c5         1 ZG1       0.100500
     28 C28         52.7240    44.9620    64.7820 c5         1 ZG1       0.100500
     29 O29         51.4960    44.8020    67.2620 o          1 ZG1      -0.606100
     30 C30         52.5550    46.8710    63.3280 c5         1 ZG1      -0.093900
     31 C31         53.4190    45.6340    63.5980 c5         1 ZG1      -0.093900
     32 H1          40.0630    46.1110    63.4420 hc         1 ZG1       0.049367
     33 H1A         41.2240    45.0940    62.5750 hc         1 ZG1       0.049367
     34 H1B         41.4640    45.4450    64.2970 hc         1 ZG1       0.049367
     35 H2          41.5750    47.5290    62.0400 h1         1 ZG1       0.070700
     36 H2A         41.8190    47.8670    63.7550 h1         1 ZG1       0.070700
     37 H5          45.7220    45.7430    61.0650 h4         1 ZG1       0.044800
     38 HN8         48.6420    46.1850    64.2510 hn         1 ZG1       0.541000
     39 H9          47.3440    44.9100    61.9430 h1         1 ZG1       0.065700
     40 H10         50.1670    44.8910    63.0490 hc         1 ZG1       0.063700
     41 H10A        48.9740    43.5960    63.1550 hc         1 ZG1       0.063700
     42 H11         50.6750    43.2160    61.3320 h1         1 ZG1       0.051200
     43 H11A        49.0130    43.2880    60.7130 h1         1 ZG1       0.051200
     44 H13         49.5680    46.5510    59.3290 h1         1 ZG1       0.051200
     45 H13A        48.3510    45.2760    59.5350 h1         1 ZG1       0.051200
     46 H14         47.8360    47.1640    61.0510 hc         1 ZG1       0.063700
     47 H14A        49.4620    47.0940    61.7350 hc         1 ZG1       0.063700
     48 H16         45.1290    47.8390    66.7540 h4         1 ZG1       0.036100
     49 H23         51.4120    48.0550    67.0370 hc         1 ZG1       0.087200
     50 H23A        51.1710    47.0490    68.4640 hc         1 ZG1       0.087200
     51 H27         51.1710    47.8240    64.7300 h1         1 ZG1       0.053700
     52 H27A        52.8840    48.0180    65.1500 h1         1 ZG1       0.053700
     53 H28         53.4080    44.4260    65.4390 h1         1 ZG1       0.053700
     54 H28A        51.9510    44.2610    64.4580 h1         1 ZG1       0.053700
     55 H30         51.6690    46.5940    62.7550 hc         1 ZG1       0.056700
     56 H30A        53.0820    47.6510    62.7810 hc         1 ZG1       0.056700
     57 H31         54.4290    45.9360    63.8810 hc         1 ZG1       0.056700
     58 H31A        53.4910    44.9700    62.7370 hc         1 ZG1       0.056700
@<TRIPOS>BOND
     1     1     2 1   
     2     1    32 1   
     3     1    33 1   
     4     1    34 1   
     5     2     3 1   
     6     2    35 1   
     7     2    36 1   
     8     3     4 1   
     9     3    18 1   
    10     4     5 2   
    11     5     6 1   
    12     5    37 1   
    13     6     7 ar  
    14     6    18 ar  
    15     7     8 1   
    16     7    15 ar  
    17     8     9 1   
    18     8    38 1   
    19     9    10 1   
    20     9    14 1   
    21     9    39 1   
    22    10    11 1   
    23    10    40 1   
    24    10    41 1   
    25    11    12 1   
    26    11    42 1   
    27    11    43 1   
    28    12    13 1   
    29    13    14 1   
    30    13    44 1   
    31    13    45 1   
    32    14    46 1   
    33    14    47 1   
    34    15    16 ar  
    35    15    19 1   
    36    16    17 ar  
    37    16    48 1   
    38    17    18 ar  
    39    19    20 1   
    40    19    24 2   
    41    20    21 1   
    42    21    22 2   
    43    22    23 1   
    44    22    24 1   
    45    23    26 1   
    46    23    49 1   
    47    23    50 1   
    48    25    26 1   
    49    25    27 1   
    50    25    28 1   
    51    26    29 2   
    52    27    30 1   
    53    27    51 1   
    54    27    52 1   
    55    28    31 1   
    56    28    53 1   
    57    28    54 1   
    58    30    31 1   
    59    30    55 1   
    60    30    56 1   
    61    31    57 1   
    62    31    58 1   
@<TRIPOS>SUBSTRUCTURE
     1 ZG1         1 TEMP              0 ****  ****    0 ROOT
