@<TRIPOS>MOLECULE
ZG4
   55    59     1     0     0
SMALL
abcg2


@<TRIPOS>ATOM
      1 N1         128.5200   147.6850   146.7210 nb         1 ZG4      -0.740000
      2 N3         125.2450   144.2520   146.7870 nb         1 ZG4      -0.681000
      3 C4         127.2130   147.4210   146.8180 cp         1 ZG4       0.401500
      4 C5         131.1480   148.2300   146.5020 c3         1 ZG4       0.171600
      5 C6         132.4990   148.8770   146.3190 c3         1 ZG4      -0.099100
      6 C7         126.8310   146.0200   147.0560 cp         1 ZG4      -0.184500
      7 C8         125.6200   145.5040   146.5940 ca         1 ZG4       0.353900
      8 C10        127.2810   143.8440   147.9530 ca         1 ZG4      -0.113000
      9 C13        124.2860   139.5280   145.9960 cc         1 ZG4       0.335300
     10 C15        125.8710   138.7010   144.7200 cd         1 ZG4       0.662300
     11 C17        126.3250   140.0110   141.5760 cx         1 ZG4      -0.066400
     12 C20        122.3860   140.3840   147.5200 cx         1 ZG4      -0.111900
     13 C21        123.4530   139.8490   148.4130 cx         1 ZG4      -0.111900
     14 C1         128.8800   148.9280   146.5130 ca         1 ZG4       0.553300
     15 C11        127.6780   145.1510   147.7380 ca         1 ZG4      -0.046000
     16 C14        123.5400   138.6250   145.3160 cd         1 ZG4      -0.293000
     17 C16        127.3600   138.9340   141.5210 cx         1 ZG4      -0.433700
     18 C18        127.7730   140.3610   141.6800 cx         1 ZG4      -0.066400
     19 C19        123.8190   140.4390   147.0760 cx         1 ZG4       0.024100
     20 C2         127.9280   149.9580   146.3940 ca         1 ZG4       0.275900
     21 C3         126.2750   148.4370   146.7180 ca         1 ZG4       0.250900
     22 C9         126.0490   143.4370   147.4610 ca         1 ZG4       0.297500
     23 N2         126.6470   149.6990   146.5040 nb         1 ZG4      -0.605000
     24 N4         124.4270   141.7270   147.0720 ns         1 ZG4      -0.456900
     25 N5         125.6090   139.5690   145.6370 nc         1 ZG4      -0.674000
     26 N6         127.1520   138.5580   144.2270 nu         1 ZG4      -0.882000
     27 O1         130.1570   149.2600   146.4010 os         1 ZG4      -0.458300
     28 O2         126.2460   141.2490   148.3550 o          1 ZG4      -0.580100
     29 O3         126.6490   136.6870   142.6580 o          1 ZG4      -0.518000
     30 O4         129.0090   137.5060   142.9570 o          1 ZG4      -0.518000
     31 S1         124.5240   137.7400   144.2100 ss         1 ZG4       0.036600
     32 S2         127.5930   137.7780   142.8280 s6         1 ZG4       1.269100
     33 H52        130.9700   147.4700   145.7380 h1         1 ZG4       0.049700
     34 H53        131.0770   147.7420   147.4770 h1         1 ZG4       0.049700
     35 H62        133.2730   148.1130   146.3920 hc         1 ZG4       0.049367
     36 H63        132.5880   149.3510   145.3420 hc         1 ZG4       0.049367
     37 H61        132.6940   149.6240   147.0890 hc         1 ZG4       0.049367
     38 H8         124.9360   146.1230   146.0240 h4         1 ZG4       0.024100
     39 H10        127.9160   143.1550   148.4910 ha         1 ZG4       0.153000
     40 H172       125.8020   140.2070   140.6500 hc         1 ZG4       0.084950
     41 H203       121.9280   141.3280   147.7840 hc         1 ZG4       0.082950
     42 H202       121.7160   139.6910   147.0300 hc         1 ZG4       0.082950
     43 H213       123.5490   138.7760   148.5140 hc         1 ZG4       0.082950
     44 H212       123.7140   140.4120   149.2990 hc         1 ZG4       0.082950
     45 H11        128.6340   145.4990   148.1070 ha         1 ZG4       0.139000
     46 H14        122.4840   138.4190   145.3880 h4         1 ZG4       0.162000
     47 H16        127.5420   138.4430   140.5700 h1         1 ZG4       0.138700
     48 H183       128.2700   140.8120   140.8330 hc         1 ZG4       0.084950
     49 H182       128.1410   140.6930   142.6430 hc         1 ZG4       0.084950
     50 H2         128.2370   150.9820   146.2160 h4         1 ZG4       0.046100
     51 H3         125.2150   148.2490   146.8310 h4         1 ZG4       0.036100
     52 H4         124.0070   142.4570   146.5130 hn         1 ZG4       0.343500
     53 HN6        127.8580   139.1380   144.6690 hn         1 ZG4       0.529000
     54 C12        125.5900   142.0200   147.6760 c          1 ZG4       0.519600
     55 H173       125.7140   140.1230   142.4610 hc         1 ZG4       0.084950
@<TRIPOS>BOND
     1     1     3 ar  
     2     1    14 ar  
     3     2     7 ar  
     4     2    22 ar  
     5     3     6 1   
     6     3    21 ar  
     7     4     5 1   
     8     4    27 1   
     9     4    33 1   
    10     4    34 1   
    11     5    35 1   
    12     5    36 1   
    13     5    37 1   
    14     6     7 ar  
    15     6    15 ar  
    16     7    38 1   
    17     8    15 ar  
    18     8    22 ar  
    19     8    39 1   
    20     9    16 2   
    21     9    19 1   
    22     9    25 1   
    23    10    25 2   
    24    10    26 1   
    25    10    31 1   
    26    11    17 1   
    27    11    18 1   
    28    11    40 1   
    29    11    55 1   
    30    12    13 1   
    31    12    19 1   
    32    12    41 1   
    33    12    42 1   
    34    13    19 1   
    35    13    43 1   
    36    13    44 1   
    37    14    20 ar  
    38    14    27 1   
    39    15    45 1   
    40    16    31 1   
    41    16    46 1   
    42    17    18 1   
    43    17    32 1   
    44    17    47 1   
    45    18    48 1   
    46    18    49 1   
    47    19    24 1   
    48    20    23 ar  
    49    20    50 1   
    50    21    23 ar  
    51    21    51 1   
    52    22    54 1   
    53    24    52 1   
    54    24    54 1   
    55    26    32 1   
    56    26    53 1   
    57    28    54 2   
    58    29    32 2   
    59    30    32 2   
@<TRIPOS>SUBSTRUCTURE
     1 ZG4         1 TEMP              0 ****  ****    0 ROOT
