@<TRIPOS>MOLECULE
ZG4
   55    59     1     0     0
SMALL
No Charge or Current Charge


@<TRIPOS>ATOM
      1 N1         128.4780   147.9560   146.5090 nb         1 ZG4      -0.740000
      2 N3         125.3330   144.2390   146.6930 nb         1 ZG4      -0.681000
      3 C4         127.1960   147.5410   146.3100 cp         1 ZG4       0.401500
      4 C5         131.0870   148.8740   146.9110 c3         1 ZG4       0.171600
      5 C6         132.3590   149.7250   147.0470 c3         1 ZG4      -0.099100
      6 C7         126.9420   146.0680   146.4760 cp         1 ZG4      -0.184500
      7 C8         125.6250   145.5500   146.5430 ca         1 ZG4       0.353900
      8 C10        127.7020   143.7630   146.7350 ca         1 ZG4      -0.113000
      9 C13        124.0640   139.5060   145.7610 cc         1 ZG4       0.335300
     10 C15        124.8430   138.1290   144.2390 cd         1 ZG4       0.662300
     11 C17        127.0080   140.2170   142.7920 cx         1 ZG4      -0.066400
     12 C20        122.9540   140.0380   148.0170 cx         1 ZG4      -0.111900
     13 C21        124.2970   139.4370   148.3490 cx         1 ZG4      -0.111900
     14 C1         128.7280   149.2850   146.3630 ca         1 ZG4       0.553300
     15 C11        128.0000   145.1250   146.5800 ca         1 ZG4      -0.046000
     16 C14        123.1080   139.6950   144.7890 cd         1 ZG4      -0.293000
     17 C16        127.5330   138.8540   142.3810 cx         1 ZG4      -0.433700
     18 C18        128.0310   139.5080   143.6580 cx         1 ZG4      -0.066400
     19 C19        124.1170   140.2190   147.0650 cx         1 ZG4       0.024100
     20 C2         127.6940   150.2040   146.0120 ca         1 ZG4       0.275900
     21 C3         126.1700   148.4850   145.9510 ca         1 ZG4       0.250900
     22 C9         126.3590   143.3410   146.7880 ca         1 ZG4       0.297500
     23 N2         126.4020   149.8190   145.7990 nb         1 ZG4      -0.605000
     24 N4         124.6820   141.5480   146.9860 ns         1 ZG4      -0.456900
     25 N5         125.0400   138.5910   145.4460 nc         1 ZG4      -0.674000
     26 N6         125.7350   137.2290   143.8280 nu         1 ZG4      -0.882000
     27 O1         130.0100   149.7600   146.5560 os         1 ZG4      -0.458300
     28 O2         126.8950   140.9830   147.0510 o          1 ZG4      -0.580100
     29 O3         125.4510   137.4600   141.3590 o          1 ZG4      -0.518000
     30 O4         127.3990   136.1680   142.3550 o          1 ZG4      -0.518000
     31 S1         123.4080   138.6860   143.3860 ss         1 ZG4       0.036600
     32 S2         126.4940   137.3170   142.3750 s6         1 ZG4       1.269100
     33 H52        131.2380   148.1100   146.1360 h1         1 ZG4       0.049700
     34 H53        130.8810   148.3680   147.8640 h1         1 ZG4       0.049700
     35 H62        133.2120   149.0910   147.3170 hc         1 ZG4       0.049367
     36 H63        132.5900   150.2270   146.1000 hc         1 ZG4       0.049367
     37 H61        132.2340   150.4850   147.8270 hc         1 ZG4       0.049367
     38 H8         124.7600   146.2070   146.4870 h4         1 ZG4       0.024100
     39 H10        128.5070   143.0360   146.8110 ha         1 ZG4       0.153000
     40 H172       127.3460   141.0820   142.2250 hc         1 ZG4       0.084950
     41 H203       122.6280   140.8980   148.5980 hc         1 ZG4       0.082950
     42 H202       122.1560   139.3600   147.7260 hc         1 ZG4       0.082950
     43 H213       124.4000   138.3570   148.2780 hc         1 ZG4       0.082950
     44 H212       124.8760   139.8960   149.1470 hc         1 ZG4       0.082950
     45 H11        129.0410   145.4400   146.5370 ha         1 ZG4       0.139000
     46 H14        122.2580   140.3640   144.8190 h4         1 ZG4       0.162000
     47 H16        128.1960   138.7970   141.5210 h1         1 ZG4       0.138700
     48 H183       129.0440   139.9040   143.6630 hc         1 ZG4       0.084950
     49 H182       127.6970   139.1330   144.6220 hc         1 ZG4       0.084950
     50 H2         127.9130   151.2640   145.8990 h4         1 ZG4       0.046100
     51 H3         125.1460   148.1670   145.7730 h4         1 ZG4       0.036100
     52 H4         124.0670   142.3510   146.8960 hn         1 ZG4       0.343500
     53 HN6        126.4860   137.1540   144.4900 hn         1 ZG4       0.529000
     54 C12        126.0330   141.8510   146.9530 c          1 ZG4       0.519600
     55 H173       125.9960   140.3110   143.1770 hc         1 ZG4       0.084950
@<TRIPOS>BOND
     1     1     3 ar  
     2     1    14 ar  
     3     2     7 ar  
     4     2    22 ar  
     5     3     6 1   
     6     3    21 ar  
     7     4     5 1   
     8     4    27 1   
     9     4    33 1   
    10     4    34 1   
    11     5    35 1   
    12     5    36 1   
    13     5    37 1   
    14     6     7 ar  
    15     6    15 ar  
    16     7    38 1   
    17     8    15 ar  
    18     8    22 ar  
    19     8    39 1   
    20     9    16 2   
    21     9    19 1   
    22     9    25 1   
    23    10    25 2   
    24    10    26 1   
    25    10    31 1   
    26    11    17 1   
    27    11    18 1   
    28    11    40 1   
    29    11    55 1   
    30    12    13 1   
    31    12    19 1   
    32    12    41 1   
    33    12    42 1   
    34    13    19 1   
    35    13    43 1   
    36    13    44 1   
    37    14    20 ar  
    38    14    27 1   
    39    15    45 1   
    40    16    31 1   
    41    16    46 1   
    42    17    18 1   
    43    17    32 1   
    44    17    47 1   
    45    18    48 1   
    46    18    49 1   
    47    19    24 1   
    48    20    23 ar  
    49    20    50 1   
    50    21    23 ar  
    51    21    51 1   
    52    22    54 1   
    53    24    52 1   
    54    24    54 1   
    55    26    32 1   
    56    26    53 1   
    57    28    54 2   
    58    29    32 2   
    59    30    32 2   
@<TRIPOS>SUBSTRUCTURE
     1 ZG4         1 TEMP              0 ****  ****    0 ROOT
