@<TRIPOS>MOLECULE
ZG5
   57    61     1     0     0
SMALL
No Charge or Current Charge


@<TRIPOS>ATOM
      1 C02         23.9250   -80.0950   -13.9320 c          1 ZG5       0.741000
      2 C04         23.3140   -80.2230   -12.4930 c6         1 ZG5       0.036300
      3 C06         21.0590   -80.6090   -11.4650 c6         1 ZG5       0.440500
      4 C08         19.6000   -82.6500   -11.2670 c6         1 ZG5       0.151300
      5 C09         19.2640   -84.0480   -11.9070 c6         1 ZG5       0.206300
      6 C11         20.3690   -84.8430   -14.0400 cc         1 ZG5       0.548400
      7 C13         22.1760   -86.3040   -13.8740 ca         1 ZG5       0.328000
      8 C14         22.5140   -87.6050   -13.4460 ca         1 ZG5      -0.136000
      9 C15         23.7210   -88.2170   -13.8160 ca         1 ZG5      -0.091000
     10 C16         24.6390   -87.5180   -14.6070 ca         1 ZG5      -0.158000
     11 C17         24.3540   -86.2070   -15.0110 ca         1 ZG5      -0.053000
     12 C18         23.1430   -85.5880   -14.6450 ca         1 ZG5      -0.190000
     13 C20         21.5130   -84.2090   -16.1580 ca         1 ZG5      -0.082000
     14 C21         21.5270   -84.0170   -17.5500 ca         1 ZG5      -0.065000
     15 C22         20.3930   -84.3510   -18.3090 ca         1 ZG5      -0.111000
     16 C23         19.2570   -84.8800   -17.6720 ca         1 ZG5      -0.115000
     17 C24         19.2530   -85.0700   -16.2790 ca         1 ZG5      -0.098000
     18 C25         20.3910   -84.7390   -15.5110 ca         1 ZG5      -0.181500
     19 C26         19.0140   -82.7400   -13.9860 c6         1 ZG5       0.206300
     20 C27         19.9430   -81.5910   -13.4620 c6         1 ZG5       0.151300
     21 C28         21.8560   -80.8280   -10.1120 c6         1 ZG5       0.114300
     22 C30         23.1850   -81.6340   -10.3750 c6         1 ZG5       0.100300
     23 C32         23.6020   -81.6270   -11.8840 c6         1 ZG5       0.160300
     24 N07         20.5490   -81.8570   -12.1120 n3         1 ZG5      -0.751600
     25 N10         19.3890   -84.0750   -13.4140 nh         1 ZG5      -0.759300
     26 N12         20.9560   -85.8210   -13.3630 nd         1 ZG5      -0.498000
     27 O01         23.1410   -80.1520   -14.8740 o          1 ZG5      -0.718000
     28 O03         24.9050   -79.3620   -14.0260 o          1 ZG5      -0.718000
     29 O05         21.8790   -79.8800   -12.4240 os         1 ZG5      -0.433000
     30 O29         22.1710   -79.5590    -9.4830 oh         1 ZG5      -0.703000
     31 O31         23.1080   -82.9910    -9.8970 oh         1 ZG5      -0.637000
     32 O33         24.9850   -82.0100   -12.0000 oh         1 ZG5      -0.693000
     33 S19         22.9390   -83.8940   -15.1690 ss         1 ZG5       0.117000
     34 H041        23.8470   -79.4890   -11.8710 h1         1 ZG5       0.044700
     35 H061        20.1790   -79.9870   -11.2370 h2         1 ZG5       0.034700
     36 H081        18.6630   -82.0880   -11.1350 h1         1 ZG5       0.048450
     37 H082        20.0010   -82.8380   -10.2630 h1         1 ZG5       0.048450
     38 H091        18.2430   -84.3310   -11.6120 h1         1 ZG5       0.053200
     39 H092        19.9260   -84.7830   -11.4300 h1         1 ZG5       0.053200
     40 H141        21.8150   -88.1560   -12.8220 ha         1 ZG5       0.113000
     41 H151        23.9450   -89.2280   -13.4840 ha         1 ZG5       0.097000
     42 H161        25.5790   -87.9860   -14.8950 ha         1 ZG5       0.102000
     43 H171        25.0850   -85.6630   -15.6070 ha         1 ZG5       0.118000
     44 H211        22.4140   -83.6210   -18.0400 ha         1 ZG5       0.131000
     45 H221        20.3960   -84.2060   -19.3870 ha         1 ZG5       0.107000
     46 H231        18.3760   -85.1380   -18.2570 ha         1 ZG5       0.104000
     47 H241        18.3640   -85.4630   -15.7900 ha         1 ZG5       0.115000
     48 H261        19.0060   -82.7240   -15.0840 h1         1 ZG5       0.053200
     49 H262        17.9830   -82.5070   -13.6810 h1         1 ZG5       0.053200
     50 H271        20.7480   -81.4470   -14.1960 h1         1 ZG5       0.048450
     51 H272        19.3550   -80.6610   -13.4520 h1         1 ZG5       0.048450
     52 H281        21.2270   -81.3970    -9.4150 h1         1 ZG5       0.013700
     53 H301        23.9870   -81.1250    -9.8190 h1         1 ZG5       0.023700
     54 H321        22.9860   -82.3600   -12.4260 h1         1 ZG5       0.090700
     55 H291        22.4830   -79.7570    -8.5700 ho         1 ZG5       0.488000
     56 H311        22.9340   -82.9490    -8.9320 ho         1 ZG5       0.414000
     57 H331        25.0870   -82.7840   -11.3990 ho         1 ZG5       0.488000
@<TRIPOS>BOND
     1     1     2 1   
     2     1    27 1   
     3     1    28 1   
     4     2    23 1   
     5     2    29 1   
     6     2    34 1   
     7     3    21 1   
     8     3    24 1   
     9     3    29 1   
    10     3    35 1   
    11     4     5 1   
    12     4    24 1   
    13     4    36 1   
    14     4    37 1   
    15     5    25 1   
    16     5    38 1   
    17     5    39 1   
    18     6    18 1   
    19     6    25 1   
    20     6    26 2   
    21     7     8 ar  
    22     7    12 ar  
    23     7    26 1   
    24     8     9 ar  
    25     8    40 1   
    26     9    10 ar  
    27     9    41 1   
    28    10    11 ar  
    29    10    42 1   
    30    11    12 ar  
    31    11    43 1   
    32    12    33 1   
    33    13    14 ar  
    34    13    18 ar  
    35    13    33 1   
    36    14    15 ar  
    37    14    44 1   
    38    15    16 ar  
    39    15    45 1   
    40    16    17 ar  
    41    16    46 1   
    42    17    18 ar  
    43    17    47 1   
    44    19    20 1   
    45    19    25 1   
    46    19    48 1   
    47    19    49 1   
    48    20    24 1   
    49    20    50 1   
    50    20    51 1   
    51    21    22 1   
    52    21    30 1   
    53    21    52 1   
    54    22    23 1   
    55    22    31 1   
    56    22    53 1   
    57    23    32 1   
    58    23    54 1   
    59    30    55 1   
    60    31    56 1   
    61    32    57 1   
@<TRIPOS>SUBSTRUCTURE
     1 ZG5         1 TEMP              0 ****  ****    0 ROOT
