@<TRIPOS>MOLECULE
ZG5
   57    61     1     0     0
SMALL
abcg2


@<TRIPOS>ATOM
      1 C02         23.4710   -79.6410   -13.8670 c          1 ZG5       0.741000
      2 C04         23.0920   -80.0750   -12.4280 c6         1 ZG5       0.036300
      3 C06         20.9920   -80.6650   -11.3480 c6         1 ZG5       0.440500
      4 C08         19.4480   -82.5620   -11.2850 c6         1 ZG5       0.151300
      5 C09         19.3650   -83.9690   -11.8840 c6         1 ZG5       0.206300
      6 C11         20.5230   -84.6200   -13.9340 cc         1 ZG5       0.548400
      7 C13         22.3050   -86.1680   -13.7060 ca         1 ZG5       0.328000
      8 C14         22.4320   -87.4880   -13.2500 ca         1 ZG5      -0.136000
      9 C15         23.5190   -88.2700   -13.5930 ca         1 ZG5      -0.091000
     10 C16         24.5290   -87.7580   -14.4010 ca         1 ZG5      -0.158000
     11 C17         24.4250   -86.4580   -14.8690 ca         1 ZG5      -0.053000
     12 C18         23.3300   -85.6700   -14.5310 ca         1 ZG5      -0.190000
     13 C20         21.7670   -84.2240   -16.0780 ca         1 ZG5      -0.082000
     14 C21         21.8060   -84.1460   -17.4650 ca         1 ZG5      -0.065000
     15 C22         20.6590   -84.3940   -18.2040 ca         1 ZG5      -0.111000
     16 C23         19.4800   -84.7440   -17.5580 ca         1 ZG5      -0.115000
     17 C24         19.4400   -84.8110   -16.1750 ca         1 ZG5      -0.098000
     18 C25         20.5770   -84.5280   -15.4190 ca         1 ZG5      -0.181500
     19 C26         19.0290   -82.6590   -13.8660 c6         1 ZG5       0.206300
     20 C27         19.8640   -81.4790   -13.3520 c6         1 ZG5       0.151300
     21 C28         21.8910   -81.1260   -10.2010 c6         1 ZG5       0.114300
     22 C30         23.1280   -81.8900   -10.7300 c6         1 ZG5       0.100300
     23 C32         23.4400   -81.5350   -12.1800 c6         1 ZG5       0.160300
     24 N07         20.4260   -81.8080   -12.0460 n3         1 ZG5      -0.751600
     25 N10         19.5370   -83.9100   -13.3290 nh         1 ZG5      -0.759300
     26 N12         21.2530   -85.4190   -13.2370 nd         1 ZG5      -0.498000
     27 O01         22.8570   -80.1930   -14.8000 o          1 ZG5      -0.718000
     28 O03         24.3660   -78.7810   -13.9580 o          1 ZG5      -0.718000
     29 O05         21.7010   -79.8440   -12.2340 os         1 ZG5      -0.433000
     30 O29         22.2470   -79.9530    -9.5030 oh         1 ZG5      -0.703000
     31 O31         22.9870   -83.2910   -10.6530 oh         1 ZG5      -0.637000
     32 O33         24.8040   -81.7160   -12.4880 oh         1 ZG5      -0.693000
     33 S19         23.2420   -84.0020   -15.1210 ss         1 ZG5       0.117000
     34 H041        23.6580   -79.4540   -11.7200 h1         1 ZG5       0.044700
     35 H061        20.1890   -80.0250   -10.9410 h2         1 ZG5       0.034700
     36 H081        18.4630   -82.0700   -11.2780 h1         1 ZG5       0.048450
     37 H082        19.7420   -82.6590   -10.2420 h1         1 ZG5       0.048450
     38 H091        18.4010   -84.4280   -11.6440 h1         1 ZG5       0.053200
     39 H092        20.1500   -84.5920   -11.4660 h1         1 ZG5       0.053200
     40 H141        21.6570   -87.8840   -12.6060 ha         1 ZG5       0.113000
     41 H151        23.5830   -89.2860   -13.2240 ha         1 ZG5       0.097000
     42 H161        25.3850   -88.3640   -14.6650 ha         1 ZG5       0.102000
     43 H171        25.1950   -86.0470   -15.5100 ha         1 ZG5       0.118000
     44 H211        22.7360   -83.9060   -17.9620 ha         1 ZG5       0.131000
     45 H221        20.6910   -84.3310   -19.2830 ha         1 ZG5       0.107000
     46 H231        18.5890   -84.9630   -18.1320 ha         1 ZG5       0.104000
     47 H241        18.5170   -85.0760   -15.6740 ha         1 ZG5       0.115000
     48 H261        19.0260   -82.6600   -14.9510 h1         1 ZG5       0.053200
     49 H262        17.9870   -82.5670   -13.5540 h1         1 ZG5       0.053200
     50 H271        20.6740   -81.2640   -14.0480 h1         1 ZG5       0.048450
     51 H272        19.2130   -80.5900   -13.3190 h1         1 ZG5       0.048450
     52 H281        21.3380   -81.8020    -9.5370 h1         1 ZG5       0.013700
     53 H301        23.9860   -81.5550   -10.1260 h1         1 ZG5       0.023700
     54 H321        22.8140   -82.1540   -12.8310 h1         1 ZG5       0.090700
     55 H291        22.7860   -80.2010    -8.7460 ho         1 ZG5       0.488000
     56 H311        22.9700   -83.5490    -9.7260 ho         1 ZG5       0.414000
     57 H331        24.9840   -82.6610   -12.4850 ho         1 ZG5       0.488000
@<TRIPOS>BOND
     1     1     2 1   
     2     1    27 1   
     3     1    28 1   
     4     2    23 1   
     5     2    29 1   
     6     2    34 1   
     7     3    21 1   
     8     3    24 1   
     9     3    29 1   
    10     3    35 1   
    11     4     5 1   
    12     4    24 1   
    13     4    36 1   
    14     4    37 1   
    15     5    25 1   
    16     5    38 1   
    17     5    39 1   
    18     6    18 1   
    19     6    25 1   
    20     6    26 2   
    21     7     8 ar  
    22     7    12 ar  
    23     7    26 1   
    24     8     9 ar  
    25     8    40 1   
    26     9    10 ar  
    27     9    41 1   
    28    10    11 ar  
    29    10    42 1   
    30    11    12 ar  
    31    11    43 1   
    32    12    33 1   
    33    13    14 ar  
    34    13    18 ar  
    35    13    33 1   
    36    14    15 ar  
    37    14    44 1   
    38    15    16 ar  
    39    15    45 1   
    40    16    17 ar  
    41    16    46 1   
    42    17    18 ar  
    43    17    47 1   
    44    19    20 1   
    45    19    25 1   
    46    19    48 1   
    47    19    49 1   
    48    20    24 1   
    49    20    50 1   
    50    20    51 1   
    51    21    22 1   
    52    21    30 1   
    53    21    52 1   
    54    22    23 1   
    55    22    31 1   
    56    22    53 1   
    57    23    32 1   
    58    23    54 1   
    59    30    55 1   
    60    31    56 1   
    61    32    57 1   
@<TRIPOS>SUBSTRUCTURE
     1 ZG5         1 TEMP              0 ****  ****    0 ROOT
