@<TRIPOS>MOLECULE
ZG6
   18    18     1     0     0
SMALL
No Charge or Current Charge


@<TRIPOS>ATOM
      1 C01         38.4520   -42.5260    32.7780 c3         1 ZG6      -0.136400
      2 C02         37.4020   -42.8110    31.7450 cc         1 ZG6       0.307300
      3 C03         36.2920   -41.9750    31.5480 cc         1 ZG6      -0.277000
      4 C04         35.5970   -42.5660    30.5490 cd         1 ZG6       0.319900
      5 N05         34.4210   -42.1730    29.9520 ns         1 ZG6      -0.489400
      6 C06         33.6450   -41.0710    30.2220 c          1 ZG6       0.611100
      7 O07         33.9160   -40.2460    31.0800 o          1 ZG6      -0.554100
      8 C08         32.3980   -40.9510    29.3560 c3         1 ZG6      -0.175100
      9 O10         36.2340   -43.7060    30.1410 os         1 ZG6      -0.134700
     10 N11         37.4270   -43.8610    30.9390 nd         1 ZG6      -0.369300
     11 H1          39.2330   -43.2950    32.7750 hc         1 ZG6       0.058033
     12 H2          38.9280   -41.5570    32.5880 hc         1 ZG6       0.058033
     13 H3          38.0090   -42.4970    33.7810 hc         1 ZG6       0.058033
     14 H4          36.0710   -41.0670    32.0930 ha         1 ZG6       0.173000
     15 H5          34.0590   -42.7600    29.2120 hn         1 ZG6       0.338500
     16 H6          31.8030   -40.0630    29.5960 hc         1 ZG6       0.070700
     17 H7          32.6930   -40.9670    28.3010 hc         1 ZG6       0.070700
     18 H8          31.8090   -41.8710    29.4490 hc         1 ZG6       0.070700
@<TRIPOS>BOND
     1     1     2 1   
     2     1    11 1   
     3     1    12 1   
     4     1    13 1   
     5     2     3 1   
     6     2    10 2   
     7     3     4 2   
     8     3    14 1   
     9     4     5 1   
    10     4     9 1   
    11     5     6 1   
    12     5    15 1   
    13     6     7 2   
    14     6     8 1   
    15     8    16 1   
    16     8    17 1   
    17     8    18 1   
    18     9    10 1   
@<TRIPOS>SUBSTRUCTURE
     1 ZG6         1 TEMP              0 ****  ****    0 ROOT
