@<TRIPOS>MOLECULE
ZG6
   18    18     1     0     0
SMALL
abcg2


@<TRIPOS>ATOM
      1 C01         38.5080   -42.5890    32.7680 c3         1 ZG6      -0.136400
      2 C02         37.3920   -42.7420    31.7930 cc         1 ZG6       0.307300
      3 C03         36.2750   -41.8800    31.6160 cc         1 ZG6      -0.277000
      4 C04         35.5710   -42.4690    30.6090 cd         1 ZG6       0.319900
      5 N05         34.4060   -42.1800    29.9450 ns         1 ZG6      -0.489400
      6 C06         33.6070   -41.0830    30.1840 c          1 ZG6       0.611100
      7 O07         33.8860   -40.2580    31.0390 o          1 ZG6      -0.554100
      8 C08         32.3880   -41.0040    29.3050 c3         1 ZG6      -0.175100
      9 O10         36.1860   -43.5900    30.1970 os         1 ZG6      -0.134700
     10 N11         37.3650   -43.7600    30.9680 nd         1 ZG6      -0.369300
     11 H1          39.2050   -43.4220    32.6890 hc         1 ZG6       0.058033
     12 H2          39.0460   -41.6580    32.5840 hc         1 ZG6       0.058033
     13 H3          38.1170   -42.5490    33.7860 hc         1 ZG6       0.058033
     14 H4          36.0410   -40.9780    32.1470 ha         1 ZG6       0.173000
     15 H5          34.1260   -42.8350    29.2270 hn         1 ZG6       0.338500
     16 H6          31.7990   -40.1360    29.5850 hc         1 ZG6       0.070700
     17 H7          32.6860   -40.9220    28.2570 hc         1 ZG6       0.070700
     18 H8          31.7860   -41.9090    29.4080 hc         1 ZG6       0.070700
@<TRIPOS>BOND
     1     1     2 1   
     2     1    11 1   
     3     1    12 1   
     4     1    13 1   
     5     2     3 1   
     6     2    10 2   
     7     3     4 2   
     8     3    14 1   
     9     4     5 1   
    10     4     9 1   
    11     5     6 1   
    12     5    15 1   
    13     6     7 2   
    14     6     8 1   
    15     8    16 1   
    16     8    17 1   
    17     8    18 1   
    18     9    10 1   
@<TRIPOS>SUBSTRUCTURE
     1 ZG6         1 TEMP              0 ****  ****    0 ROOT
