@<TRIPOS>MOLECULE
ZG7
   44    48     1     0     0
SMALL
bcc


@<TRIPOS>ATOM
      1 C10        101.4900    70.6570    62.3150 cx         1 ZG7      -0.103400
      2 N12        100.5040    73.9880    61.9230 nc         1 ZG7      -0.544100
      3 C17        101.5380    77.3980    62.3760 cc         1 ZG7      -0.205200
      4 C20        101.2100    80.5260    64.0590 ca         1 ZG7      -0.121000
      5 C21        101.5120    81.1190    65.2730 ca         1 ZG7       0.006100
      6 C24        102.1740    79.0200    66.1810 ca         1 ZG7      -0.095000
      7 C26        100.6660    76.3290    62.3670 cd         1 ZG7       0.278800
      8 C28        102.6690    73.6540    61.3660 cd         1 ZG7      -0.190300
      9 C02        100.8060    70.7550    57.1490 ca         1 ZG7       0.032400
     10 C03         99.8000    71.5030    57.7420 ca         1 ZG7      -0.122500
     11 C04         99.8790    71.7820    59.0960 ca         1 ZG7      -0.103500
     12 C05        100.9460    71.3210    59.8640 ca         1 ZG7      -0.054300
     13 C06        101.9420    70.5760    59.2450 ca         1 ZG7      -0.103500
     14 C07        101.8790    70.2860    57.8890 ca         1 ZG7      -0.122500
     15 C08        101.0140    71.6750    61.3180 cx         1 ZG7      -0.104000
     16 C09        100.0450    71.0400    62.2700 cx         1 ZG7      -0.103400
     17 C11        101.3880    73.0880    61.5480 cd         1 ZG7       0.473600
     18 C14        102.5220    75.0070    61.6640 cc         1 ZG7       0.442500
     19 C16        102.8770    77.1930    62.0190 cd         1 ZG7       0.481200
     20 C19        101.3990    79.1560    63.9270 ca         1 ZG7       0.099100
     21 C23        101.9970    80.3840    66.3460 ca         1 ZG7      -0.121000
     22 C25        101.8790    78.3910    64.9790 ca         1 ZG7      -0.178000
     23 N13        101.1900    75.1400    61.9940 na         1 ZG7       0.040200
     24 N15        103.3710    76.0280    61.6730 nc         1 ZG7      -0.648000
     25 O18        101.0630    78.6320    62.7040 os         1 ZG7      -0.233200
     26 O27         99.3960    76.3260    62.6690 oh         1 ZG7      -0.437100
     27 CL01       100.7170    70.3980    55.4550 cl         1 ZG7      -0.112400
     28 H1         101.7740    69.6830    61.9400 hc         1 ZG7       0.082450
     29 H2         102.0870    71.0070    63.1480 hc         1 ZG7       0.082450
     30 H3         100.8360    81.1010    63.2220 ha         1 ZG7       0.165000
     31 H4         102.5480    78.4300    67.0070 ha         1 ZG7       0.142000
     32 H5          98.9630    71.8620    57.1570 ha         1 ZG7       0.149000
     33 H6          99.0940    72.3650    59.5620 ha         1 ZG7       0.143500
     34 H7         102.7820    70.2090    59.8210 ha         1 ZG7       0.143500
     35 H8         102.6600    69.7030    57.4190 ha         1 ZG7       0.149000
     36 H9          99.6470    71.6480    63.0720 hc         1 ZG7       0.082450
     37 H10         99.3430    70.3310    61.8530 hc         1 ZG7       0.082450
     38 H11        103.5540    78.0420    62.0270 h4         1 ZG7       0.049100
     39 H12        102.2330    80.8560    67.2900 ha         1 ZG7       0.155000
     40 H13        102.0230    77.3230    64.8860 ha         1 ZG7       0.146000
     41 H14         99.0780    77.2140    62.8940 ho         1 ZG7       0.479000
     42 C29        103.8570    73.0060    60.9940 ch         1 ZG7       0.252500
     43 BR22       101.2630    82.9790    65.4650 br         1 ZG7      -0.080100
     44 N30        104.8330    72.4680    60.6930 n1         1 ZG7      -0.372800
@<TRIPOS>BOND
     1     1    15 1   
     2     1    16 1   
     3     1    28 1   
     4     1    29 1   
     5     2    17 2   
     6     2    23 1   
     7     3     7 2   
     8     3    19 1   
     9     3    25 1   
    10     4     5 ar  
    11     4    20 ar  
    12     4    30 1   
    13     5    21 ar  
    14     5    43 1   
    15     6    21 ar  
    16     6    22 ar  
    17     6    31 1   
    18     7    23 1   
    19     7    26 1   
    20     8    17 1   
    21     8    18 2   
    22     8    42 1   
    23     9    10 ar  
    24     9    14 ar  
    25     9    27 1   
    26    10    11 ar  
    27    10    32 1   
    28    11    12 ar  
    29    11    33 1   
    30    12    13 ar  
    31    12    15 1   
    32    13    14 ar  
    33    13    34 1   
    34    14    35 1   
    35    15    16 1   
    36    15    17 1   
    37    16    36 1   
    38    16    37 1   
    39    18    23 1   
    40    18    24 1   
    41    19    24 2   
    42    19    38 1   
    43    20    22 ar  
    44    20    25 1   
    45    21    39 1   
    46    22    40 1   
    47    26    41 1   
    48    42    44 3   
@<TRIPOS>SUBSTRUCTURE
     1 ZG7         1 TEMP              0 ****  ****    0 ROOT
