@<TRIPOS>MOLECULE
ZG7
   44    48     1     0     0
SMALL
No Charge or Current Charge


@<TRIPOS>ATOM
      1 C10        101.5790    70.7280    62.4140 cx         1 ZG7      -0.103400
      2 N12        100.3630    74.0330    61.8910 nc         1 ZG7      -0.544100
      3 C17        101.5790    77.4630    62.1800 cc         1 ZG7      -0.139900
      4 C20        101.3000    80.4920    64.0780 ca         1 ZG7      -0.103000
      5 C21        101.5330    80.9600    65.3820 ca         1 ZG7       0.006100
      6 C24        102.0900    78.7060    66.0950 ca         1 ZG7      -0.077000
      7 C26        100.5810    76.5050    62.2220 cd         1 ZG7       0.228100
      8 C28        102.5990    73.7470    61.3940 cd         1 ZG7      -0.190300
      9 C02        100.7940    70.7380    57.1960 ca         1 ZG7       0.124000
     10 C03         99.7300    71.4040    57.8250 ca         1 ZG7      -0.104500
     11 C04         99.8090    71.7160    59.1940 ca         1 ZG7      -0.085500
     12 C05        100.9500    71.3640    59.9410 ca         1 ZG7      -0.054300
     13 C06        102.0140    70.6940    59.3010 ca         1 ZG7      -0.085500
     14 C07        101.9350    70.3830    57.9320 ca         1 ZG7      -0.104500
     15 C08        101.0210    71.7140    61.4030 cx         1 ZG7      -0.104000
     16 C09        100.1000    71.0140    62.3870 cx         1 ZG7      -0.103400
     17 C11        101.3170    73.1720    61.5630 cd         1 ZG7       0.473600
     18 C14        102.4200    75.0720    61.6310 cc         1 ZG7       0.442500
     19 C16        102.9150    77.2490    61.8660 cd         1 ZG7       0.415900
     20 C19        101.4640    79.1310    63.7640 ca         1 ZG7       0.099100
     21 C23        101.9300    80.0690    66.3910 ca         1 ZG7      -0.103000
     22 C25        101.8570    78.2320    64.7910 ca         1 ZG7      -0.160000
     23 N13        101.0660    75.2260    61.9290 na         1 ZG7       0.090900
     24 N15        103.4040    76.0390    61.5790 nc         1 ZG7      -0.648000
     25 O18        101.2040    78.7610    62.4470 os         1 ZG7      -0.233200
     26 O27         99.2770    76.7290    62.5080 oh         1 ZG7      -0.476100
     27 Cl01       100.6970    70.3490    55.4840 cl         1 ZG7      -0.204000
     28 H1         101.9060    69.7520    62.0620 hc         1 ZG7       0.082450
     29 H2         102.1530    71.1210    63.2510 hc         1 ZG7       0.082450
     30 H3         100.9930    81.1880    63.3020 ha         1 ZG7       0.147000
     31 H4         102.3920    78.0140    66.8790 ha         1 ZG7       0.124000
     32 H5          98.8470    71.6780    57.2540 ha         1 ZG7       0.131000
     33 H6          98.9810    72.2330    59.6760 ha         1 ZG7       0.125500
     34 H7         102.9040    70.4150    59.8610 ha         1 ZG7       0.125500
     35 H8         102.7580    69.8680    57.4430 ha         1 ZG7       0.131000
     36 H9          99.6830    71.5940    63.2070 hc         1 ZG7       0.082450
     37 H10         99.4430    70.2370    62.0030 hc         1 ZG7       0.082450
     38 H11        103.6500    78.0440    61.8370 h4         1 ZG7       0.049100
     39 H12        102.1090    80.4320    67.4010 ha         1 ZG7       0.137000
     40 H13        101.9830    77.1680    64.6100 ha         1 ZG7       0.128000
     41 H14         99.1960    77.6960    62.6500 ho         1 ZG7       0.518000
     42 C29        103.8110    73.1040    61.0590 ch         1 ZG7       0.341700
     43 Br22       101.3100    82.8160    65.7830 br         1 ZG7      -0.080100
     44 N30        104.8020    72.5480    60.7930 n1         1 ZG7      -0.462000
@<TRIPOS>BOND
     1     1    15 1   
     2     1    16 1   
     3     1    28 1   
     4     1    29 1   
     5     2    17 2   
     6     2    23 1   
     7     3     7 2   
     8     3    19 1   
     9     3    25 1   
    10     4     5 ar  
    11     4    20 ar  
    12     4    30 1   
    13     5    21 ar  
    14     5    43 1   
    15     6    21 ar  
    16     6    22 ar  
    17     6    31 1   
    18     7    23 1   
    19     7    26 1   
    20     8    17 1   
    21     8    18 2   
    22     8    42 1   
    23     9    10 ar  
    24     9    14 ar  
    25     9    27 1   
    26    10    11 ar  
    27    10    32 1   
    28    11    12 ar  
    29    11    33 1   
    30    12    13 ar  
    31    12    15 1   
    32    13    14 ar  
    33    13    34 1   
    34    14    35 1   
    35    15    16 1   
    36    15    17 1   
    37    16    36 1   
    38    16    37 1   
    39    18    23 1   
    40    18    24 1   
    41    19    24 2   
    42    19    38 1   
    43    20    22 ar  
    44    20    25 1   
    45    21    39 1   
    46    22    40 1   
    47    26    41 1   
    48    42    44 3   
@<TRIPOS>SUBSTRUCTURE
     1 ZG7         1 TEMP              0 ****  ****    0 ROOT
