@<TRIPOS>MOLECULE
ZG9
   48    49     1     0     0
SMALL
No Charge or Current Charge


@<TRIPOS>ATOM
      1 C1         -15.6510   -37.8840   -64.0040 c3         1 ZG9       0.146900
      2 O1         -15.4990   -36.5390   -63.5220 os         1 ZG9      -0.457000
      3 C2         -16.3910   -35.5810   -64.1320 c3         1 ZG9       0.165600
      4 C3         -16.1260   -34.1620   -63.5440 c6         1 ZG9       0.180300
      5 O2         -14.8160   -33.7310   -63.9930 os         1 ZG9      -0.465000
      6 C4         -14.3880   -32.4750   -63.4360 c6         1 ZG9       0.380300
      7 O3         -13.0460   -32.2170   -63.8870 os         1 ZG9      -0.430000
      8 C5         -12.0040   -33.1010   -63.4190 c3         1 ZG9       0.163600
      9 C6         -11.7610   -32.9180   -61.8910 c6         1 ZG9       0.100300
     10 C7         -11.4470   -31.4390   -61.5080 c6         1 ZG9       0.122600
     11 O4         -11.1290   -31.3600   -60.0950 os         1 ZG9      -0.459000
     12 C8         -10.0070   -32.2020   -59.7270 c6         1 ZG9       0.115600
     13 C9         -10.3140   -33.6770   -60.1100 c6         1 ZG9       0.121600
     14 O5         -10.6340   -33.7550   -61.5220 os         1 ZG9      -0.456000
     15 C10        -15.3490   -31.3340   -63.8940 c6         1 ZG9       0.048700
     16 N1         -14.9610   -30.0120   -63.3330 ns         1 ZG9      -0.515900
     17 C11        -14.1440   -29.0930   -63.9520 c          1 ZG9       0.599100
     18 C12        -13.7900   -27.8810   -63.1010 c3         1 ZG9      -0.179100
     19 O6         -13.7440   -29.2310   -65.0970 o          1 ZG9      -0.588100
     20 C13        -16.7970   -31.7100   -63.4650 c6         1 ZG9       0.124300
     21 O7         -17.7420   -30.7270   -63.9250 oh         1 ZG9      -0.660000
     22 C14        -17.1890   -33.1170   -64.0040 c6         1 ZG9       0.145300
     23 O8         -18.5160   -33.4460   -63.5520 oh         1 ZG9      -0.722000
     24 H1         -14.9430   -38.5530   -63.4970 h1         1 ZG9       0.031367
     25 H2         -16.6670   -38.2550   -63.8140 h1         1 ZG9       0.031367
     26 H3         -15.4570   -37.9370   -65.0830 h1         1 ZG9       0.031367
     27 H4         -16.2500   -35.5470   -65.2200 h1         1 ZG9       0.046200
     28 H5         -17.4350   -35.8580   -63.9320 h1         1 ZG9       0.046200
     29 H6         -16.1270   -34.2320   -62.4460 h1         1 ZG9       0.057700
     30 H7         -14.4040   -32.5350   -62.3390 h2         1 ZG9       0.023700
     31 H8         -12.2570   -34.1510   -63.6190 h1         1 ZG9       0.071700
     32 H9         -11.0660   -32.8800   -63.9450 h1         1 ZG9       0.071700
     33 H10        -12.6480   -33.2640   -61.3410 h1         1 ZG9       0.037700
     34 H11        -12.3170   -30.8000   -61.7150 h1         1 ZG9       0.067200
     35 H12        -10.5980   -31.0640   -62.0980 h1         1 ZG9       0.067200
     36 H13         -9.1010   -31.8560   -60.2470 h1         1 ZG9       0.057200
     37 H14         -9.8350   -32.1220   -58.6450 h1         1 ZG9       0.057200
     38 H15         -9.4400   -34.3090   -59.9020 h1         1 ZG9       0.055200
     39 H16        -11.1620   -34.0540   -59.5190 h1         1 ZG9       0.055200
     40 H17        -15.3080   -31.2850   -64.9920 h1         1 ZG9       0.126700
     41 H18        -15.2220   -29.8000   -62.3760 hn         1 ZG9       0.304500
     42 H19        -14.7150   -27.4110   -62.7470 hc         1 ZG9       0.064700
     43 H20        -13.3310   -28.2240   -62.1670 hc         1 ZG9       0.064700
     44 H21        -13.1490   -27.1670   -63.6300 hc         1 ZG9       0.064700
     45 H22        -16.8200   -31.7470   -62.3650 h1         1 ZG9       0.036700
     46 H23        -17.3170   -29.8490   -63.7990 ho         1 ZG9       0.455000
     47 H24        -17.1700   -33.0790   -65.1040 h1         1 ZG9       0.067700
     48 H25        -19.0130   -32.5930   -63.6040 ho         1 ZG9       0.524000
@<TRIPOS>BOND
     1     1     2 1   
     2     1    24 1   
     3     1    25 1   
     4     1    26 1   
     5     2     3 1   
     6     3     4 1   
     7     3    27 1   
     8     3    28 1   
     9     4     5 1   
    10     4    22 1   
    11     4    29 1   
    12     5     6 1   
    13     6     7 1   
    14     6    15 1   
    15     6    30 1   
    16     7     8 1   
    17     8     9 1   
    18     8    31 1   
    19     8    32 1   
    20     9    10 1   
    21     9    14 1   
    22     9    33 1   
    23    10    11 1   
    24    10    34 1   
    25    10    35 1   
    26    11    12 1   
    27    12    13 1   
    28    12    36 1   
    29    12    37 1   
    30    13    14 1   
    31    13    38 1   
    32    13    39 1   
    33    15    16 1   
    34    15    20 1   
    35    15    40 1   
    36    16    17 1   
    37    16    41 1   
    38    17    18 1   
    39    17    19 2   
    40    18    42 1   
    41    18    43 1   
    42    18    44 1   
    43    20    21 1   
    44    20    22 1   
    45    20    45 1   
    46    21    46 1   
    47    22    23 1   
    48    22    47 1   
    49    23    48 1   
@<TRIPOS>SUBSTRUCTURE
     1 ZG9         1 TEMP              0 ****  ****    0 ROOT
