@<TRIPOS>MOLECULE
ZG9
   48    49     1     0     0
SMALL
abcg2


@<TRIPOS>ATOM
      1 C1         -16.2590   -37.9310   -64.6410 c3         1 ZG9       0.146900
      2 O1         -15.9800   -36.7160   -63.9650 os         1 ZG9      -0.457000
      3 C2         -16.6580   -35.6140   -64.5440 c3         1 ZG9       0.165600
      4 C3         -16.3060   -34.3570   -63.7830 c6         1 ZG9       0.180300
      5 O2         -14.9380   -34.0500   -64.0540 os         1 ZG9      -0.465000
      6 C4         -14.4400   -32.9560   -63.3000 c6         1 ZG9       0.380300
      7 O3         -13.1060   -32.7860   -63.6460 os         1 ZG9      -0.430000
      8 C5         -12.1600   -33.4420   -62.7990 c3         1 ZG9       0.163600
      9 C6         -11.6830   -32.4860   -61.7180 c6         1 ZG9       0.100300
     10 C7         -10.8870   -31.3200   -62.2850 c6         1 ZG9       0.122600
     11 O4         -10.3990   -30.4860   -61.2370 os         1 ZG9      -0.459000
     12 C8          -9.5900   -31.2380   -60.3310 c6         1 ZG9       0.115600
     13 C9         -10.3700   -32.4090   -59.7660 c6         1 ZG9       0.121600
     14 O5         -10.8700   -33.2380   -60.8170 os         1 ZG9      -0.456000
     15 C10        -15.2140   -31.6800   -63.6450 c6         1 ZG9       0.048700
     16 N1         -14.7800   -30.5760   -62.8170 ns         1 ZG9      -0.515900
     17 C11        -14.0890   -29.5050   -63.2710 c          1 ZG9       0.599100
     18 C12        -13.6800   -28.5030   -62.2180 c3         1 ZG9      -0.179100
     19 O6         -13.8030   -29.3460   -64.4580 o          1 ZG9      -0.588100
     20 C13        -16.7160   -31.9160   -63.4690 c6         1 ZG9       0.124300
     21 O7         -17.4840   -30.8310   -63.9830 oh         1 ZG9      -0.660000
     22 C14        -17.1740   -33.1690   -64.1990 c6         1 ZG9       0.145300
     23 O8         -18.5300   -33.4620   -63.8850 oh         1 ZG9      -0.722000
     24 H1         -15.7110   -38.7210   -64.1290 h1         1 ZG9       0.031367
     25 H2         -17.3310   -38.1590   -64.6170 h1         1 ZG9       0.031367
     26 H3         -15.9330   -37.8840   -65.6870 h1         1 ZG9       0.031367
     27 H4         -16.3670   -35.4960   -65.5960 h1         1 ZG9       0.046200
     28 H5         -17.7410   -35.7700   -64.5020 h1         1 ZG9       0.046200
     29 H6         -16.4400   -34.5380   -62.7090 h1         1 ZG9       0.057700
     30 H7         -14.5450   -33.1800   -62.2290 h2         1 ZG9       0.023700
     31 H8         -12.5960   -34.3340   -62.3440 h1         1 ZG9       0.071700
     32 H9         -11.3260   -33.7500   -63.4310 h1         1 ZG9       0.071700
     33 H10        -12.5510   -32.0910   -61.1720 h1         1 ZG9       0.037700
     34 H11        -11.5100   -30.7000   -62.9260 h1         1 ZG9       0.067200
     35 H12        -10.0450   -31.7110   -62.8720 h1         1 ZG9       0.067200
     36 H13         -8.6970   -31.6030   -60.8540 h1         1 ZG9       0.057200
     37 H14         -9.2860   -30.5590   -59.5350 h1         1 ZG9       0.057200
     38 H15         -9.7290   -33.0350   -59.1440 h1         1 ZG9       0.055200
     39 H16        -11.2100   -32.0420   -59.1620 h1         1 ZG9       0.055200
     40 H17        -15.0040   -31.4220   -64.6820 h1         1 ZG9       0.126700
     41 H18        -14.9490   -30.6440   -61.8250 hn         1 ZG9       0.304500
     42 H19        -14.0450   -27.5180   -62.5100 hc         1 ZG9       0.064700
     43 H20        -14.0550   -28.7490   -61.2260 hc         1 ZG9       0.064700
     44 H21        -12.5900   -28.4590   -62.1860 hc         1 ZG9       0.064700
     45 H22        -16.9320   -32.0500   -62.4020 h1         1 ZG9       0.036700
     46 H23        -17.3910   -30.0750   -63.3910 ho         1 ZG9       0.455000
     47 H24        -17.0580   -33.0090   -65.2780 h1         1 ZG9       0.067700
     48 H25        -19.0370   -32.6500   -64.0180 ho         1 ZG9       0.524000
@<TRIPOS>BOND
     1     1     2 1   
     2     1    24 1   
     3     1    25 1   
     4     1    26 1   
     5     2     3 1   
     6     3     4 1   
     7     3    27 1   
     8     3    28 1   
     9     4     5 1   
    10     4    22 1   
    11     4    29 1   
    12     5     6 1   
    13     6     7 1   
    14     6    15 1   
    15     6    30 1   
    16     7     8 1   
    17     8     9 1   
    18     8    31 1   
    19     8    32 1   
    20     9    10 1   
    21     9    14 1   
    22     9    33 1   
    23    10    11 1   
    24    10    34 1   
    25    10    35 1   
    26    11    12 1   
    27    12    13 1   
    28    12    36 1   
    29    12    37 1   
    30    13    14 1   
    31    13    38 1   
    32    13    39 1   
    33    15    16 1   
    34    15    20 1   
    35    15    40 1   
    36    16    17 1   
    37    16    41 1   
    38    17    18 1   
    39    17    19 2   
    40    18    42 1   
    41    18    43 1   
    42    18    44 1   
    43    20    21 1   
    44    20    22 1   
    45    20    45 1   
    46    21    46 1   
    47    22    23 1   
    48    22    47 1   
    49    23    48 1   
@<TRIPOS>SUBSTRUCTURE
     1 ZG9         1 TEMP              0 ****  ****    0 ROOT
