@<TRIPOS>MOLECULE
ZGA
   92    94     1     0     0
SMALL
abcg2


@<TRIPOS>ATOM
      1 CAA          4.3160    -0.1660     3.9930 c2         1 ZGA      -0.362000
      2 CAB         -4.4280     6.5160     0.9950 c3         1 ZGA      -0.086100
      3 CAC          5.4580     3.9650     3.9620 c3         1 ZGA      -0.158100
      4 CAD         -6.9860     2.0090    -2.7440 c3         1 ZGA      -0.080100
      5 CAE         -3.8740     5.0810    -1.6830 c3         1 ZGA      -0.083100
      6 CAF          5.4340     0.4800     0.4650 c3         1 ZGA      -0.074100
      7 OAG          3.1510     3.2890     3.9150 o          1 ZGA      -0.491000
      8 OAH         -4.0200    -0.2910     0.6240 o          1 ZGA      -0.551000
      9 OAI         -0.2680    -6.0370     1.2410 o          1 ZGA      -0.748000
     10 OAJ         -0.7570    -5.2370    -1.7560 o          1 ZGA      -0.739500
     11 OAK         -1.1740    -2.3520    -2.7640 o          1 ZGA      -0.736500
     12 OAL          1.2460    -5.0470     2.5410 o          1 ZGA      -0.748000
     13 OAM         -2.4470    -4.3740    -0.5860 o          1 ZGA      -0.739500
     14 OAN          0.5350    -0.9500    -2.4840 o          1 ZGA      -0.736500
     15 OAO         -1.9080    -1.3500     2.5650 oh         1 ZGA      -0.698000
     16 OAP          1.0570    -3.8770    -0.7260 oh         1 ZGA      -0.746000
     17 CAQ         -3.9280     1.0360    -1.3530 ce         1 ZGA      -0.206200
     18 CAR         -5.1150     1.6210    -1.1850 c2         1 ZGA      -0.227200
     19 CAS          4.0340     1.5920    -4.4380 ca         1 ZGA      -0.141000
     20 CAT          3.0410     1.0040    -3.6620 ca         1 ZGA      -0.112000
     21 CAU          4.9670     2.4240    -3.8370 ca         1 ZGA      -0.112000
     22 CAV          2.9820     1.2500    -2.2980 ca         1 ZGA      -0.100000
     23 CAW          4.9060     2.6660    -2.4690 ca         1 ZGA      -0.100000
     24 CAX         -5.4700     5.7820     0.1610 c3         1 ZGA      -0.070400
     25 CAY          2.5920    -0.9650     2.4100 c3         1 ZGA      -0.052200
     26 CAZ          1.1580    -0.4460     2.2760 c3         1 ZGA      -0.029400
     27 CBA          3.8450     2.3450    -0.2020 c3         1 ZGA      -0.020100
     28 CBB         -6.0850     3.9010    -1.3590 c3         1 ZGA      -0.060400
     29 OBC          4.6490     2.2240     2.6340 os         1 ZGA      -0.453100
     30 OBD         -2.2570    -0.4440    -0.7430 os         1 ZGA      -0.370100
     31 OBE          0.4200    -2.6540     1.9740 os         1 ZGA      -0.443000
     32 OBF          0.6190    -1.3100     0.1210 os         1 ZGA      -0.450000
     33 CBG          4.2810     3.1470     3.5220 c          1 ZGA       0.594100
     34 CBH         -3.4330     0.0450    -0.3840 c          1 ZGA       0.585300
     35 CBI          3.5740     0.0620     2.9130 c2         1 ZGA      -0.091400
     36 CBL         -0.3330    -1.7420    -2.0830 c          1 ZGA       0.762000
     37 CBM          3.9140     2.0870    -1.6830 ca         1 ZGA      -0.095300
     38 CBN         -5.7290     2.6140    -2.1120 c3         1 ZGA      -0.025500
     39 CBO         -4.9220     4.6220    -0.6740 c3         1 ZGA      -0.061700
     40 CBP          4.0420     1.0730     0.6320 c3         1 ZGA      -0.066700
     41 CBQ         -1.2140    -0.9200     1.4320 c5         1 ZGA       0.081300
     42 CBR          3.6740     1.3300     2.0980 c3         1 ZGA       0.202500
     43 CBS         -0.2720    -3.6850     1.2900 c6         1 ZGA       0.024300
     44 CBT         -1.7020    -1.4780     0.0830 c5         1 ZGA       0.115300
     45 CBU         -0.2100    -3.5140    -0.2410 c6         1 ZGA       0.040000
     46 CBV          0.2620    -1.3700     1.4720 c5         1 ZGA       0.389000
     47 CBW         -0.4140    -2.0100    -0.5660 c5         1 ZGA       0.046000
     48 HAA          5.0600     0.5260     4.3640 ha         1 ZGA       0.149000
     49 HAAA         4.2050    -1.0870     4.5510 ha         1 ZGA       0.149000
     50 HAB         -3.8520     5.8180     1.6070 hc         1 ZGA       0.027700
     51 HABA        -3.7230     7.0730     0.3790 hc         1 ZGA       0.027700
     52 HABB        -4.9020     7.2310     1.6690 hc         1 ZGA       0.027700
     53 HAC          5.1380     4.7780     4.6070 hc         1 ZGA       0.053367
     54 HACA         6.1640     3.3380     4.5090 hc         1 ZGA       0.053367
     55 HACB         5.9890     4.3740     3.1030 hc         1 ZGA       0.053367
     56 HADB        -7.4540     2.7260    -3.4200 hc         1 ZGA       0.027700
     57 HAE         -3.4270     4.2380    -2.2110 hc         1 ZGA       0.031033
     58 HAEA        -4.3170     5.7440    -2.4300 hc         1 ZGA       0.031033
     59 HAEB        -3.0600     5.6220    -1.2000 hc         1 ZGA       0.031033
     60 HAF          5.5660    -0.4100     1.0830 hc         1 ZGA       0.030367
     61 HAFA         5.6060     0.1900    -0.5720 hc         1 ZGA       0.030367
     62 HAFB         6.2100     1.1970     0.7380 hc         1 ZGA       0.030367
     63 HOAO        -2.8290    -1.0930     2.4450 ho         1 ZGA       0.492000
     64 HOAP         0.8060    -4.5980    -1.3440 ho         1 ZGA       0.533000
     65 HAQ         -3.3010     1.2660    -2.2070 ha         1 ZGA       0.202000
     66 HAR         -5.7100     1.3530    -0.3140 ha         1 ZGA       0.180000
     67 HAS          4.0790     1.4010    -5.5030 ha         1 ZGA       0.088000
     68 HAT          2.3040     0.3500    -4.1110 ha         1 ZGA       0.119500
     69 HAU          5.7460     2.8870    -4.4300 ha         1 ZGA       0.119500
     70 HAV          2.2010     0.7690    -1.7200 ha         1 ZGA       0.136500
     71 HAW          5.6410     3.3150    -2.0060 ha         1 ZGA       0.136500
     72 HAX         -6.2410     5.3850     0.8280 hc         1 ZGA       0.024200
     73 HAXA        -5.9810     6.4930    -0.4990 hc         1 ZGA       0.024200
     74 HAY          2.6060    -1.8250     3.0800 hc         1 ZGA       0.093700
     75 HAYA         2.9300    -1.3380     1.4390 hc         1 ZGA       0.093700
     76 HAZ          0.7270    -0.2920     3.2690 hc         1 ZGA       0.023200
     77 HAZA         1.1330     0.5280     1.7800 hc         1 ZGA       0.023200
     78 HBA          4.5910     3.0940     0.0740 hc         1 ZGA       0.032700
     79 HBAA         2.8670     2.7720     0.0410 hc         1 ZGA       0.032700
     80 HBB         -6.5660     4.5880    -2.0640 hc         1 ZGA       0.022700
     81 HBBA        -6.8460     3.6630    -0.6060 hc         1 ZGA       0.022700
     82 HBN         -5.0180     2.8410    -2.9110 hc         1 ZGA       0.052700
     83 HBO         -4.4400     3.9210     0.0190 hc         1 ZGA       0.074700
     84 HBP          3.3140     0.3400     0.2700 hc         1 ZGA       0.124700
     85 HBQ         -1.2080     0.1780     1.3640 h1         1 ZGA      -0.002300
     86 HBR          2.7000     1.8290     2.1110 h1         1 ZGA       0.078700
     87 HBS         -1.3270    -3.6670     1.5910 h1         1 ZGA       0.041700
     88 HBT         -2.4380    -2.2730     0.2010 h1         1 ZGA       0.140700
     89 CBJ          0.3040    -5.0440     1.7320 c          1 ZGA       0.743000
     90 HAD         -6.7530     1.1100    -3.3150 hc         1 ZGA       0.027700
     91 CBK         -1.2540    -4.4480    -0.9200 c          1 ZGA       0.764000
     92 HADA        -7.7200     1.7430    -1.9810 hc         1 ZGA       0.027700
@<TRIPOS>BOND
     1     1    35 2   
     2     1    48 1   
     3     1    49 1   
     4     2    24 1   
     5     2    50 1   
     6     2    51 1   
     7     2    52 1   
     8     3    33 1   
     9     3    53 1   
    10     3    54 1   
    11     3    55 1   
    12     4    38 1   
    13     4    56 1   
    14     4    90 1   
    15     4    92 1   
    16     5    39 1   
    17     5    57 1   
    18     5    58 1   
    19     5    59 1   
    20     6    40 1   
    21     6    60 1   
    22     6    61 1   
    23     6    62 1   
    24     7    33 2   
    25     8    34 2   
    26     9    89 1   
    27    10    91 1   
    28    11    36 1   
    29    12    89 1   
    30    13    91 1   
    31    14    36 1   
    32    15    41 1   
    33    15    63 1   
    34    16    45 1   
    35    16    64 1   
    36    17    18 2   
    37    17    34 1   
    38    17    65 1   
    39    18    38 1   
    40    18    66 1   
    41    19    20 ar  
    42    19    21 ar  
    43    19    67 1   
    44    20    22 ar  
    45    20    68 1   
    46    21    23 ar  
    47    21    69 1   
    48    22    37 ar  
    49    22    70 1   
    50    23    37 ar  
    51    23    71 1   
    52    24    39 1   
    53    24    72 1   
    54    24    73 1   
    55    25    26 1   
    56    25    35 1   
    57    25    74 1   
    58    25    75 1   
    59    26    46 1   
    60    26    76 1   
    61    26    77 1   
    62    27    37 1   
    63    27    40 1   
    64    27    78 1   
    65    27    79 1   
    66    28    38 1   
    67    28    39 1   
    68    28    80 1   
    69    28    81 1   
    70    29    33 1   
    71    29    42 1   
    72    30    34 1   
    73    30    44 1   
    74    31    43 1   
    75    31    46 1   
    76    32    46 1   
    77    32    47 1   
    78    35    42 1   
    79    36    47 1   
    80    38    82 1   
    81    39    83 1   
    82    40    42 1   
    83    40    84 1   
    84    41    44 1   
    85    41    46 1   
    86    41    85 1   
    87    42    86 1   
    88    43    45 1   
    89    43    87 1   
    90    43    89 1   
    91    44    47 1   
    92    44    88 1   
    93    45    47 1   
    94    45    91 1   
@<TRIPOS>SUBSTRUCTURE
     1 ZGA         1 TEMP              0 ****  ****    0 ROOT
