@<TRIPOS>MOLECULE
ZGA
   92    94     1     0     0
SMALL
No Charge or Current Charge


@<TRIPOS>ATOM
      1 CAA          4.1510     0.0910     3.2300 c2         1 ZGA      -0.362000
      2 CAB         -3.7180     6.2330     0.9440 c3         1 ZGA      -0.086100
      3 CAC          3.4370     4.3890     3.6010 c3         1 ZGA      -0.158100
      4 CAD         -8.1090     2.0550    -1.4140 c3         1 ZGA      -0.080100
      5 CAE         -4.2300     4.4880    -1.6330 c3         1 ZGA      -0.083100
      6 CAF          6.1560     1.2030     0.7130 c3         1 ZGA      -0.074100
      7 OAG          1.7550     2.8510     2.7750 o          1 ZGA      -0.491000
      8 OAH         -4.4960    -0.6060     1.2420 o          1 ZGA      -0.551000
      9 OAI         -0.7450    -6.0530     2.2940 o          1 ZGA      -0.748000
     10 OAJ         -1.4490    -5.8650    -1.2510 o          1 ZGA      -0.739500
     11 OAK         -2.1600    -2.8550    -2.7400 o          1 ZGA      -0.736500
     12 OAL          1.2340    -5.3250     2.2400 o          1 ZGA      -0.748000
     13 OAM         -3.0110    -4.6430    -0.4430 o          1 ZGA      -0.739500
     14 OAN         -0.6880    -1.3270    -2.8040 o          1 ZGA      -0.736500
     15 OAO         -2.1170    -1.1810     2.7100 oh         1 ZGA      -0.698000
     16 OAP          0.5170    -4.2630    -0.9130 oh         1 ZGA      -0.746000
     17 CAQ         -4.8060     0.7240    -0.7340 ce         1 ZGA      -0.206200
     18 CAR         -5.9190     1.4050    -0.3680 c2         1 ZGA      -0.227200
     19 CAS          7.2690     2.0160    -4.3450 ca         1 ZGA      -0.141000
     20 CAT          6.0640     1.3010    -4.2420 ca         1 ZGA      -0.112000
     21 CAU          7.6390     2.9160    -3.3320 ca         1 ZGA      -0.112000
     22 CAV          5.2300     1.4850    -3.1250 ca         1 ZGA      -0.100000
     23 CAW          6.8040     3.1010    -2.2160 ca         1 ZGA      -0.100000
     24 CAX         -5.0920     5.7230     0.4580 c3         1 ZGA      -0.070400
     25 CAY          2.5080    -0.7620     1.5360 c3         1 ZGA      -0.052200
     26 CAZ          1.0220    -0.4030     1.7900 c3         1 ZGA      -0.029400
     27 CBA          4.6900     2.5800    -0.8920 c3         1 ZGA      -0.020100
     28 CBB         -6.5060     3.8670    -0.5820 c3         1 ZGA      -0.060400
     29 OBC          3.9170     2.6740     2.0060 os         1 ZGA      -0.453100
     30 OBD         -3.0100    -0.7890    -0.5190 os         1 ZGA      -0.370100
     31 OBE          0.2790    -2.7510     1.8140 os         1 ZGA      -0.443000
     32 OBF          0.0940    -1.5390    -0.1760 os         1 ZGA      -0.450000
     33 CBG          2.9250     3.2080     2.7850 c          1 ZGA       0.594100
     34 CBH         -4.1180    -0.2840     0.1200 c          1 ZGA       0.585300
     35 CBI          3.4780     0.2800     2.0800 c2         1 ZGA      -0.091400
     36 CBL         -1.3350    -2.1540    -2.1650 c          1 ZGA       0.762000
     37 CBM          5.5960     2.3840    -2.1040 ca         1 ZGA      -0.095300
     38 CBN         -6.6320     2.4500    -1.2060 c3         1 ZGA      -0.025500
     39 CBO         -5.0560     4.3780    -0.3240 c3         1 ZGA      -0.061700
     40 CBP          4.7370     1.3940     0.1110 c3         1 ZGA      -0.066700
     41 CBQ         -1.5120    -0.9980     1.4170 c5         1 ZGA       0.081300
     42 CBR          3.6170     1.5240     1.1880 c3         1 ZGA       0.202500
     43 CBS         -0.4870    -3.9040     1.3380 c6         1 ZGA       0.024300
     44 CBT         -2.2400    -1.7620     0.2500 c5         1 ZGA       0.115300
     45 CBU         -0.7050    -3.8560    -0.2140 c6         1 ZGA       0.040000
     46 CBV         -0.0050    -1.4330     1.2480 c5         1 ZGA       0.389000
     47 CBW         -1.0500    -2.3600    -0.6130 c5         1 ZGA       0.046000
     48 HAA          4.8540     0.8310     3.6120 ha         1 ZGA       0.149000
     49 HAAA         4.0230    -0.8120     3.8280 ha         1 ZGA       0.149000
     50 HAB         -3.1980     5.4600     1.5230 hc         1 ZGA       0.027700
     51 HABA        -3.0810     6.5290     0.1030 hc         1 ZGA       0.027700
     52 HABB        -3.8490     7.1110     1.5880 hc         1 ZGA       0.027700
     53 HAC          2.6470     4.8730     4.1860 hc         1 ZGA       0.053367
     54 HACA         4.2650     4.0490     4.2330 hc         1 ZGA       0.053367
     55 HACB         3.9350     5.0960     2.9280 hc         1 ZGA       0.053367
     56 HADB        -8.6170     2.7810    -2.0610 hc         1 ZGA       0.027700
     57 HAE         -4.1590     3.5200    -2.1420 hc         1 ZGA       0.031033
     58 HAEA        -4.6860     5.2070    -2.3240 hc         1 ZGA       0.031033
     59 HAEB        -3.2030     4.8110    -1.4300 hc         1 ZGA       0.031033
     60 HAF          6.1940     0.3210     1.3620 hc         1 ZGA       0.030367
     61 HAFA         6.9000     1.0530    -0.0780 hc         1 ZGA       0.030367
     62 HAFB         6.4570     2.0780     1.3010 hc         1 ZGA       0.030367
     63 HOAO        -3.0740    -0.9580     2.5850 ho         1 ZGA       0.492000
     64 HOAP         0.2240    -5.0840    -1.3940 ho         1 ZGA       0.533000
     65 HAQ         -4.3430     0.8950    -1.7040 ha         1 ZGA       0.202000
     66 HAR         -6.3730     1.2300     0.6100 ha         1 ZGA       0.180000
     67 HAS          7.9140     1.8740    -5.2090 ha         1 ZGA       0.088000
     68 HAT          5.7760     0.6040    -5.0270 ha         1 ZGA       0.119500
     69 HAU          8.5710     3.4710    -3.4110 ha         1 ZGA       0.119500
     70 HAV          4.2980     0.9280    -3.0550 ha         1 ZGA       0.136500
     71 HAW          7.1010     3.7980    -1.4340 ha         1 ZGA       0.136500
     72 HAX         -5.7340     5.6020     1.3390 hc         1 ZGA       0.024200
     73 HAXA        -5.5600     6.4960    -0.1640 hc         1 ZGA       0.024200
     74 HAY          2.7090    -1.7320     2.0060 hc         1 ZGA       0.093700
     75 HAYA         2.6700    -0.9170     0.4630 hc         1 ZGA       0.093700
     76 HAZ          0.8720    -0.2770     2.8690 hc         1 ZGA       0.023200
     77 HAZA         0.8110     0.5740     1.3410 hc         1 ZGA       0.023200
     78 HBA          4.9520     3.5080    -0.3690 hc         1 ZGA       0.032700
     79 HBAA         3.6580     2.7140    -1.2400 hc         1 ZGA       0.032700
     80 HBB         -7.0240     4.5860    -1.2300 hc         1 ZGA       0.022700
     81 HBBA        -7.0510     3.8660     0.3710 hc         1 ZGA       0.022700
     82 HBN         -6.1810     2.4780    -2.2050 hc         1 ZGA       0.052700
     83 HBO         -4.5540     3.6460     0.3210 hc         1 ZGA       0.074700
     84 HBP          4.5100     0.4860    -0.4600 hc         1 ZGA       0.124700
     85 HBQ         -1.5560     0.0780     1.1980 h1         1 ZGA      -0.002300
     86 HBR          2.6720     1.6870     0.6500 h1         1 ZGA       0.078700
     87 HBS         -1.4770    -3.8330     1.8100 h1         1 ZGA       0.041700
     88 HBT         -2.9160    -2.5370     0.6290 h1         1 ZGA       0.140700
     89 CBJ          0.0850    -5.2940     1.8090 c          1 ZGA       0.743000
     90 HAD         -8.1800     1.0690    -1.8890 hc         1 ZGA       0.027700
     91 CBK         -1.8280    -4.9370    -0.5400 c          1 ZGA       0.764000
     92 HADA        -8.6430     2.0140    -0.4570 hc         1 ZGA       0.027700
@<TRIPOS>BOND
     1     1    35 2   
     2     1    48 1   
     3     1    49 1   
     4     2    24 1   
     5     2    50 1   
     6     2    51 1   
     7     2    52 1   
     8     3    33 1   
     9     3    53 1   
    10     3    54 1   
    11     3    55 1   
    12     4    38 1   
    13     4    56 1   
    14     4    90 1   
    15     4    92 1   
    16     5    39 1   
    17     5    57 1   
    18     5    58 1   
    19     5    59 1   
    20     6    40 1   
    21     6    60 1   
    22     6    61 1   
    23     6    62 1   
    24     7    33 2   
    25     8    34 2   
    26     9    89 1   
    27    10    91 1   
    28    11    36 1   
    29    12    89 1   
    30    13    91 1   
    31    14    36 1   
    32    15    41 1   
    33    15    63 1   
    34    16    45 1   
    35    16    64 1   
    36    17    18 2   
    37    17    34 1   
    38    17    65 1   
    39    18    38 1   
    40    18    66 1   
    41    19    20 ar  
    42    19    21 ar  
    43    19    67 1   
    44    20    22 ar  
    45    20    68 1   
    46    21    23 ar  
    47    21    69 1   
    48    22    37 ar  
    49    22    70 1   
    50    23    37 ar  
    51    23    71 1   
    52    24    39 1   
    53    24    72 1   
    54    24    73 1   
    55    25    26 1   
    56    25    35 1   
    57    25    74 1   
    58    25    75 1   
    59    26    46 1   
    60    26    76 1   
    61    26    77 1   
    62    27    37 1   
    63    27    40 1   
    64    27    78 1   
    65    27    79 1   
    66    28    38 1   
    67    28    39 1   
    68    28    80 1   
    69    28    81 1   
    70    29    33 1   
    71    29    42 1   
    72    30    34 1   
    73    30    44 1   
    74    31    43 1   
    75    31    46 1   
    76    32    46 1   
    77    32    47 1   
    78    35    42 1   
    79    36    47 1   
    80    38    82 1   
    81    39    83 1   
    82    40    42 1   
    83    40    84 1   
    84    41    44 1   
    85    41    46 1   
    86    41    85 1   
    87    42    86 1   
    88    43    45 1   
    89    43    87 1   
    90    43    89 1   
    91    44    47 1   
    92    44    88 1   
    93    45    47 1   
    94    45    91 1   
@<TRIPOS>SUBSTRUCTURE
     1 ZGA         1 TEMP              0 ****  ****    0 ROOT
