@<TRIPOS>MOLECULE
ZGB
   27    27     1     0     0
SMALL
No Charge or Current Charge


@<TRIPOS>ATOM
      1 C1           2.6320     2.3890    -0.0120 c3         1 ZGB      -0.025800
      2 O1           3.9080    -0.1410    -0.3250 os         1 ZGB      -0.353100
      3 C2           1.8750     1.0690     0.0950 ca         1 ZGB      -0.113300
      4 O2          -4.5920     1.0890     0.0200 o          1 ZGB      -0.740500
      5 C3           0.4910     1.0770     0.3580 ca         1 ZGB      -0.084000
      6 O3          -4.6450    -1.0590    -0.1220 o          1 ZGB      -0.740500
      7 C4           2.5500    -0.1610    -0.0680 ca         1 ZGB       0.105100
      8 C5           4.6770    -1.3440    -0.5050 c3         1 ZGB       0.154900
      9 C6           1.8270    -1.3710     0.0350 ca         1 ZGB      -0.196000
     10 C7           0.4470    -1.3520     0.2970 ca         1 ZGB      -0.085000
     11 C8          -0.2280    -0.1290     0.4620 ca         1 ZGB      -0.072300
     12 C9          -1.7250    -0.1090     0.7440 c3         1 ZGB      -0.019100
     13 C10         -2.5640    -0.0020    -0.5500 c3         1 ZGB      -0.202400
     14 C11         -4.0620     0.0120    -0.2050 c          1 ZGB       0.717000
     15 H1           3.0960     2.4970    -1.0000 hc         1 ZGB       0.032367
     16 H1A          1.9720     3.2520     0.1370 hc         1 ZGB       0.032367
     17 H1B          3.4270     2.4490     0.7410 hc         1 ZGB       0.032367
     18 H3          -0.0320     2.0230     0.4820 ha         1 ZGB       0.114000
     19 H5           4.6340    -1.9720     0.3930 h1         1 ZGB       0.029700
     20 H5A          4.3020    -1.9220    -1.3600 h1         1 ZGB       0.029700
     21 H5B          5.7280    -1.0960    -0.6980 h1         1 ZGB       0.029700
     22 H6           2.3150    -2.3340    -0.0870 ha         1 ZGB       0.101000
     23 H7          -0.1000    -2.2890     0.3710 ha         1 ZGB       0.113000
     24 H9          -2.0170    -1.0150     1.2900 hc         1 ZGB       0.050200
     25 H9A         -1.9700     0.7340     1.4040 hc         1 ZGB       0.050200
     26 H10         -2.2690     0.9420    -1.0230 hc         1 ZGB       0.020200
     27 H10A        -2.3130    -0.8910    -1.1430 hc         1 ZGB       0.020200
@<TRIPOS>BOND
     1     1     3 1   
     2     1    15 1   
     3     1    16 1   
     4     1    17 1   
     5     2     7 1   
     6     2     8 1   
     7     3     5 ar  
     8     3     7 ar  
     9     4    14 1   
    10     5    11 ar  
    11     5    18 1   
    12     6    14 1   
    13     7     9 ar  
    14     8    19 1   
    15     8    20 1   
    16     8    21 1   
    17     9    10 ar  
    18     9    22 1   
    19    10    11 ar  
    20    10    23 1   
    21    11    12 1   
    22    12    13 1   
    23    12    24 1   
    24    12    25 1   
    25    13    14 1   
    26    13    26 1   
    27    13    27 1   
@<TRIPOS>SUBSTRUCTURE
     1 ZGB         1 TEMP              0 ****  ****    0 ROOT
