@<TRIPOS>MOLECULE
ZGB
   27    27     1     0     0
SMALL
abcg2


@<TRIPOS>ATOM
      1 C1           2.6630     2.3670    -0.1140 c3         1 ZGB      -0.025800
      2 O1           3.8540    -0.1090    -0.3430 os         1 ZGB      -0.353100
      3 C2           1.8940     1.0910     0.0680 ca         1 ZGB      -0.113300
      4 O2          -4.4760     0.2250     0.8480 o          1 ZGB      -0.740500
      5 C3           0.5380     1.1050     0.3630 ca         1 ZGB      -0.084000
      6 O3          -4.7220    -0.3300    -1.2950 o          1 ZGB      -0.740500
      7 C4           2.5330    -0.1510    -0.0570 ca         1 ZGB       0.105100
      8 C5           4.5480    -1.3270    -0.5040 c3         1 ZGB       0.154900
      9 C6           1.8110    -1.3260     0.1170 ca         1 ZGB      -0.196000
     10 C7           0.4530    -1.2710     0.4150 ca         1 ZGB      -0.085000
     11 C8          -0.2100    -0.0590     0.5430 ca         1 ZGB      -0.072300
     12 C9          -1.6880     0.0010     0.8160 c3         1 ZGB      -0.019100
     13 C10         -2.5130    -0.1760    -0.4570 c3         1 ZGB      -0.202400
     14 C11         -4.0390    -0.0880    -0.2770 c          1 ZGB       0.717000
     15 H1           3.1260     2.4240    -1.1000 hc         1 ZGB       0.032367
     16 H1A          2.0070     3.2300    -0.0050 hc         1 ZGB       0.032367
     17 H1B          3.4660     2.4650     0.6190 hc         1 ZGB       0.032367
     18 H3           0.0440     2.0660     0.4660 ha         1 ZGB       0.114000
     19 H5           4.5300    -1.9330     0.4060 h1         1 ZGB       0.029700
     20 H5A          4.1460    -1.9220    -1.3280 h1         1 ZGB       0.029700
     21 H5B          5.5800    -1.0690    -0.7310 h1         1 ZGB       0.029700
     22 H6           2.2870    -2.2940     0.0270 ha         1 ZGB       0.101000
     23 H7          -0.0890    -2.2000     0.5500 ha         1 ZGB       0.113000
     24 H9          -1.9620    -0.7720     1.5380 hc         1 ZGB       0.050200
     25 H9A         -1.9380     0.9570     1.2790 hc         1 ZGB       0.050200
     26 H10         -2.2120     0.5790    -1.1930 hc         1 ZGB       0.020200
     27 H10A        -2.2690    -1.1370    -0.9200 hc         1 ZGB       0.020200
@<TRIPOS>BOND
     1     1     3 1   
     2     1    15 1   
     3     1    16 1   
     4     1    17 1   
     5     2     7 1   
     6     2     8 1   
     7     3     5 ar  
     8     3     7 ar  
     9     4    14 1   
    10     5    11 ar  
    11     5    18 1   
    12     6    14 1   
    13     7     9 ar  
    14     8    19 1   
    15     8    20 1   
    16     8    21 1   
    17     9    10 ar  
    18     9    22 1   
    19    10    11 ar  
    20    10    23 1   
    21    11    12 1   
    22    12    13 1   
    23    12    24 1   
    24    12    25 1   
    25    13    14 1   
    26    13    26 1   
    27    13    27 1   
@<TRIPOS>SUBSTRUCTURE
     1 ZGB         1 TEMP              0 ****  ****    0 ROOT
