@<TRIPOS>MOLECULE
ZGC
   24    24     1     0     0
SMALL
No Charge or Current Charge


@<TRIPOS>ATOM
      1 C1          -4.9540     0.8860     0.2050 c3         1 ZGC       0.155900
      2 O1          -4.0890    -0.2380     0.4510 os         1 ZGC      -0.353100
      3 C2          -2.7410    -0.2060     0.1580 ca         1 ZGC       0.103100
      4 O2           4.4750    -0.8670     0.3540 o          1 ZGC      -0.740000
      5 C3          -2.1100     0.9250    -0.4040 ca         1 ZGC      -0.173000
      6 O3           4.3590     1.1460    -0.4000 o          1 ZGC      -0.740000
      7 C4          -0.7320     0.8970    -0.6810 ca         1 ZGC      -0.084000
      8 C5          -1.9810    -1.3540     0.4360 ca         1 ZGC      -0.173000
      9 C6          -0.6040    -1.3810     0.1580 ca         1 ZGC      -0.084000
     10 C7           0.0280    -0.2550    -0.4030 ca         1 ZGC      -0.074300
     11 C8           1.5220    -0.2810    -0.7030 c3         1 ZGC      -0.018100
     12 C9           2.3690     0.2150     0.4930 c3         1 ZGC      -0.203400
     13 C10          3.8630     0.1670     0.1350 c          1 ZGC       0.717000
     14 H1          -5.9810     0.6480     0.5100 h1         1 ZGC       0.030367
     15 H1A         -4.6240     1.7640     0.7750 h1         1 ZGC       0.030367
     16 H1B         -4.9660     1.1420    -0.8620 h1         1 ZGC       0.030367
     17 H3          -2.6680     1.8300    -0.6300 ha         1 ZGC       0.106000
     18 H4          -0.2530     1.7740    -1.1110 ha         1 ZGC       0.113500
     19 H5          -2.4620    -2.2270     0.8690 ha         1 ZGC       0.106000
     20 H6          -0.0270    -2.2760     0.3810 ha         1 ZGC       0.113500
     21 H8           1.8340    -1.3000    -0.9670 hc         1 ZGC       0.050200
     22 H8A          1.7400     0.3390    -1.5810 hc         1 ZGC       0.050200
     23 H9           2.0490     1.2490     0.6770 hc         1 ZGC       0.020700
     24 H9A          2.1480    -0.4700     1.3210 hc         1 ZGC       0.020700
@<TRIPOS>BOND
     1     1     2 1   
     2     1    14 1   
     3     1    15 1   
     4     1    16 1   
     5     2     3 1   
     6     3     5 ar  
     7     3     8 ar  
     8     4    13 1   
     9     5     7 ar  
    10     5    17 1   
    11     6    13 1   
    12     7    10 ar  
    13     7    18 1   
    14     8     9 ar  
    15     8    19 1   
    16     9    10 ar  
    17     9    20 1   
    18    10    11 1   
    19    11    12 1   
    20    11    21 1   
    21    11    22 1   
    22    12    13 1   
    23    12    23 1   
    24    12    24 1   
@<TRIPOS>SUBSTRUCTURE
     1 ZGC         1 TEMP              0 ****  ****    0 ROOT
