@<TRIPOS>MOLECULE
ZGC
   24    24     1     0     0
SMALL
bcc


@<TRIPOS>ATOM
      1 C1          -4.8500     0.8670     0.3060 c3         1 ZGC       0.132700
      2 O1          -4.0410    -0.2820     0.4450 os         1 ZGC      -0.329900
      3 C2          -2.7350    -0.1880     0.1170 ca         1 ZGC       0.103100
      4 O2           4.5190     0.2870     1.2880 o          1 ZGC      -0.845300
      5 C3          -2.1160     0.9750    -0.3330 ca         1 ZGC      -0.191000
      6 O3           4.2800    -0.0690    -0.8980 o          1 ZGC      -0.845300
      7 C4          -0.7590     0.9590    -0.6410 ca         1 ZGC      -0.102000
      8 C5          -1.9770    -1.3540     0.2430 ca         1 ZGC      -0.191000
      9 C6          -0.6300    -1.3460    -0.0690 ca         1 ZGC      -0.102000
     10 C7           0.0130    -0.1900    -0.5160 ca         1 ZGC      -0.074300
     11 C8           1.4890    -0.1820    -0.8030 c3         1 ZGC      -0.018100
     12 C9           2.3140     0.0630     0.4570 c3         1 ZGC      -0.203400
     13 C10          3.8400     0.0950     0.2570 c          1 ZGC       0.927600
     14 H1          -5.8510     0.5830     0.6230 h1         1 ZGC       0.030367
     15 H1A         -4.5050     1.6910     0.9370 h1         1 ZGC       0.030367
     16 H1B         -4.8950     1.2150    -0.7290 h1         1 ZGC       0.030367
     17 H3          -2.6690     1.8970    -0.4540 ha         1 ZGC       0.124000
     18 H4          -0.2990     1.8750    -0.9940 ha         1 ZGC       0.131500
     19 H5          -2.4540    -2.2650     0.5840 ha         1 ZGC       0.124000
     20 H6          -0.0630    -2.2640     0.0360 ha         1 ZGC       0.131500
     21 H8           1.7820    -1.1340    -1.2510 hc         1 ZGC       0.050200
     22 H8A          1.7140     0.5890    -1.5430 hc         1 ZGC       0.050200
     23 H9           2.0070     1.0100     0.9150 hc         1 ZGC       0.020700
     24 H9A          2.0810    -0.7030     1.2050 hc         1 ZGC       0.020700
@<TRIPOS>BOND
     1     1     2 1   
     2     1    14 1   
     3     1    15 1   
     4     1    16 1   
     5     2     3 1   
     6     3     5 ar  
     7     3     8 ar  
     8     4    13 1   
     9     5     7 ar  
    10     5    17 1   
    11     6    13 1   
    12     7    10 ar  
    13     7    18 1   
    14     8     9 ar  
    15     8    19 1   
    16     9    10 ar  
    17     9    20 1   
    18    10    11 1   
    19    11    12 1   
    20    11    21 1   
    21    11    22 1   
    22    12    13 1   
    23    12    23 1   
    24    12    24 1   
@<TRIPOS>SUBSTRUCTURE
     1 ZGC         1 TEMP              0 ****  ****    0 ROOT
