@<TRIPOS>MOLECULE
ZGD
   45    47     1     0     0
SMALL
No Charge or Current Charge


@<TRIPOS>ATOM
      1 C01          0.1880    39.4350   -13.2270 c3         1 ZGD       0.219100
      2 N05         -0.8480    39.5590   -12.1850 nu         1 ZGD      -0.929100
      3 C07         -1.9070    38.7020   -11.9430 ca         1 ZGD       0.399900
      4 C08         -2.1300    37.5520   -12.7040 ca         1 ZGD      -0.314000
      5 C10         -3.2330    36.7590   -12.3700 ca         1 ZGD       0.371300
      6 O11         -3.4620    35.6250   -13.1130 os         1 ZGD      -0.344400
      7 C12         -4.5280    34.7860   -12.8540 ca         1 ZGD       0.096100
      8 C13         -5.7690    34.9970   -13.4850 ca         1 ZGD       0.155500
      9 Cl14        -5.9900    36.3330   -14.6160 cl         1 ZGD      -0.166000
     10 C15         -6.8510    34.1430   -13.2170 ca         1 ZGD      -0.146500
     11 C17         -6.7170    33.0660   -12.3190 ca         1 ZGD       0.017000
     12 N18         -7.8590    32.2470   -12.1000 ns         1 ZGD      -0.159000
     13 C20         -8.0740    31.1400   -11.2910 c          1 ZGD       0.670100
     14 O21         -7.2250    30.6450   -10.5590 o          1 ZGD      -0.591100
     15 N22         -9.3730    30.6650   -11.4130 ns         1 ZGD      -0.165000
     16 C24        -10.0580    29.5750   -10.8060 ca         1 ZGD      -0.015000
     17 C25        -11.4120    29.3980   -11.1400 ca         1 ZGD      -0.139000
     18 C27        -12.1530    28.3420   -10.5870 ca         1 ZGD      -0.089000
     19 C29        -11.5480    27.4500    -9.6890 ca         1 ZGD      -0.084000
     20 C31        -10.1920    27.6110    -9.3320 ca         1 ZGD      -0.169300
     21 C32         -9.4530    28.6720    -9.9010 ca         1 ZGD      -0.076000
     22 C34         -9.5090    26.6400    -8.3600 c3         1 ZGD       0.356300
     23 F35        -10.3910    25.9410    -7.6090 f          1 ZGD      -0.111667
     24 F36         -8.6920    27.2830    -7.4940 f          1 ZGD      -0.111667
     25 F37         -8.7510    25.7360    -9.0200 f          1 ZGD      -0.111667
     26 C38         -5.4690    32.8560   -11.6910 ca         1 ZGD      -0.146500
     27 C40         -4.3830    33.7090   -11.9570 ca         1 ZGD       0.155500
     28 Cl41        -2.8430    33.4120   -11.1490 cl         1 ZGD      -0.166000
     29 N42         -4.0490    37.0950   -11.3480 nb         1 ZGD      -0.282000
     30 C43         -3.7450    38.2230   -10.6780 ca         1 ZGD       0.196900
     31 N45         -2.7080    39.0480   -10.9270 nb         1 ZGD      -0.281000
     32 H1           0.8960    40.2730   -13.1680 h1         1 ZGD       0.042367
     33 H2           0.7480    38.4990   -13.1040 h1         1 ZGD       0.042367
     34 H3          -0.2690    39.4400   -14.2260 h1         1 ZGD       0.042367
     35 H4          -0.7930    40.3660   -11.5580 hn         1 ZGD       0.510000
     36 H5          -1.4820    37.2730   -13.5270 ha         1 ZGD       0.146000
     37 H6          -7.8020    34.3230   -13.7130 ha         1 ZGD       0.149500
     38 H7          -8.6670    32.5270   -12.6390 hn         1 ZGD       0.151000
     39 H8          -9.9460    31.1930   -12.0570 hn         1 ZGD       0.150000
     40 H9         -11.8960    30.0810   -11.8360 ha         1 ZGD       0.114000
     41 H10        -13.2000    28.2130   -10.8570 ha         1 ZGD       0.123000
     42 H11        -12.1400    26.6350    -9.2770 ha         1 ZGD       0.133000
     43 H12         -8.4060    28.7760    -9.6300 ha         1 ZGD       0.161000
     44 H13         -5.3140    32.0410   -10.9940 ha         1 ZGD       0.149500
     45 H14         -4.4010    38.4960    -9.8540 h5         1 ZGD       0.047100
@<TRIPOS>BOND
     1     1     2 1   
     2     1    32 1   
     3     1    33 1   
     4     1    34 1   
     5     2     3 1   
     6     2    35 1   
     7     3     4 ar  
     8     3    31 ar  
     9     4     5 ar  
    10     4    36 1   
    11     5     6 1   
    12     5    29 ar  
    13     6     7 1   
    14     7     8 ar  
    15     7    27 ar  
    16     8     9 1   
    17     8    10 ar  
    18    10    11 ar  
    19    10    37 1   
    20    11    12 1   
    21    11    26 ar  
    22    12    13 1   
    23    12    38 1   
    24    13    14 2   
    25    13    15 1   
    26    15    16 1   
    27    15    39 1   
    28    16    17 ar  
    29    16    21 ar  
    30    17    18 ar  
    31    17    40 1   
    32    18    19 ar  
    33    18    41 1   
    34    19    20 ar  
    35    19    42 1   
    36    20    21 ar  
    37    20    22 1   
    38    21    43 1   
    39    22    23 1   
    40    22    24 1   
    41    22    25 1   
    42    26    27 ar  
    43    26    44 1   
    44    27    28 1   
    45    29    30 ar  
    46    30    31 ar  
    47    30    45 1   
@<TRIPOS>SUBSTRUCTURE
     1 ZGD         1 TEMP              0 ****  ****    0 ROOT
