@<TRIPOS>MOLECULE
ZGD
   45    47     1     0     0
SMALL
bcc


@<TRIPOS>ATOM
      1 C01          0.1250    39.0690   -12.9930 c3         1 ZGD       0.219100
      2 N05         -0.8030    39.1470   -11.8950 nu         1 ZGD      -0.873900
      3 C07         -1.8790    38.3670   -11.7600 ca         1 ZGD       0.728200
      4 C08         -2.2240    37.3830   -12.6990 ca         1 ZGD      -0.462600
      5 C10         -3.3600    36.6600   -12.4070 ca         1 ZGD       0.699600
      6 O11         -3.7250    35.7030   -13.2900 os         1 ZGD      -0.344400
      7 C12         -4.7930    34.9150   -12.9890 ca         1 ZGD       0.096100
      8 C13         -6.0730    35.2510   -13.4050 ca         1 ZGD       0.063900
      9 CL14        -6.3080    36.7390   -14.2370 cl         1 ZGD      -0.074400
     10 C15         -7.1470    34.4190   -13.1650 ca         1 ZGD      -0.164500
     11 C17         -6.9660    33.2160   -12.4780 ca         1 ZGD       0.109600
     12 N18         -8.1030    32.4400   -12.2840 ns         1 ZGD      -0.485100
     13 C20         -8.2280    31.2900   -11.5470 c          1 ZGD       0.804100
     14 O21         -7.3100    30.7710   -10.9410 o          1 ZGD      -0.591100
     15 N22         -9.5050    30.7940   -11.5660 ns         1 ZGD      -0.491100
     16 C24         -9.9590    29.6340   -10.9350 ca         1 ZGD       0.077600
     17 C25        -11.0740    29.0020   -11.4860 ca         1 ZGD      -0.157000
     18 C27        -11.6100    27.8740   -10.8910 ca         1 ZGD      -0.107000
     19 C29        -11.0410    27.3440    -9.7450 ca         1 ZGD      -0.102000
     20 C31         -9.9350    27.9760    -9.1930 ca         1 ZGD      -0.169300
     21 C32         -9.3900    29.1150    -9.7720 ca         1 ZGD      -0.094000
     22 C34         -9.2920    27.3780    -7.9790 c3         1 ZGD       0.720200
     23 F35        -10.1980    26.8900    -7.1210 f          1 ZGD      -0.232967
     24 F36         -8.5450    28.2530    -7.2990 f          1 ZGD      -0.232967
     25 F37         -8.4830    26.3580    -8.3060 f          1 ZGD      -0.232967
     26 C38         -5.6870    32.8650   -12.0460 ca         1 ZGD      -0.164500
     27 C40         -4.6300    33.7220   -12.3040 ca         1 ZGD       0.063900
     28 CL41        -3.0500    33.2970   -11.7660 cl         1 ZGD      -0.074400
     29 N42         -4.1080    36.8420   -11.3350 nb         1 ZGD      -0.808000
     30 C43         -3.6900    37.8020   -10.5180 ca         1 ZGD       0.722900
     31 N45         -2.6350    38.5680   -10.6610 nb         1 ZGD      -0.807000
     32 H1           0.9050    39.8090   -12.8370 h1         1 ZGD       0.042367
     33 H2           0.5980    38.0870   -13.0580 h1         1 ZGD       0.042367
     34 H3          -0.3570    39.2810   -13.9500 h1         1 ZGD       0.042367
     35 H4          -0.6400    39.8210   -11.1650 hn         1 ZGD       0.454800
     36 H5          -1.6450    37.1910   -13.5900 ha         1 ZGD       0.164000
     37 H6          -8.1330    34.7110   -13.5040 ha         1 ZGD       0.167500
     38 H7          -8.9380    32.8150   -12.7090 hn         1 ZGD       0.317500
     39 H8         -10.1590    31.2030   -12.2170 hn         1 ZGD       0.316500
     40 H9         -11.5280    29.3980   -12.3870 ha         1 ZGD       0.132000
     41 H10        -12.4760    27.4000   -11.3330 ha         1 ZGD       0.141000
     42 H11        -11.4650    26.4560    -9.2960 ha         1 ZGD       0.151000
     43 H12         -8.5420    29.6050    -9.3200 ha         1 ZGD       0.179000
     44 H13         -5.5050    31.9480   -11.5130 ha         1 ZGD       0.167500
     45 H14         -4.2930    37.9710    -9.6320 h5         1 ZGD       0.047100
@<TRIPOS>BOND
     1     1     2 1   
     2     1    32 1   
     3     1    33 1   
     4     1    34 1   
     5     2     3 1   
     6     2    35 1   
     7     3     4 ar  
     8     3    31 ar  
     9     4     5 ar  
    10     4    36 1   
    11     5     6 1   
    12     5    29 ar  
    13     6     7 1   
    14     7     8 ar  
    15     7    27 ar  
    16     8     9 1   
    17     8    10 ar  
    18    10    11 ar  
    19    10    37 1   
    20    11    12 1   
    21    11    26 ar  
    22    12    13 1   
    23    12    38 1   
    24    13    14 2   
    25    13    15 1   
    26    15    16 1   
    27    15    39 1   
    28    16    17 ar  
    29    16    21 ar  
    30    17    18 ar  
    31    17    40 1   
    32    18    19 ar  
    33    18    41 1   
    34    19    20 ar  
    35    19    42 1   
    36    20    21 ar  
    37    20    22 1   
    38    21    43 1   
    39    22    23 1   
    40    22    24 1   
    41    22    25 1   
    42    26    27 ar  
    43    26    44 1   
    44    27    28 1   
    45    29    30 ar  
    46    30    31 ar  
    47    30    45 1   
@<TRIPOS>SUBSTRUCTURE
     1 ZGD         1 TEMP              0 ****  ****    0 ROOT
