@<TRIPOS>MOLECULE
ZGF
   22    23     1     0     0
SMALL
No Charge or Current Charge


@<TRIPOS>ATOM
      1 C10         -5.9140   -24.7170    50.1450 c5         1 ZGF       0.371600
      2 C13         -3.3970   -22.1660    50.0350 ca         1 ZGF      -0.084000
      3 C02          1.4260   -22.8480    53.5560 c3         1 ZGF      -0.173100
      4 C03          0.4840   -22.9600    52.3610 c          1 ZGF       0.603100
      5 O04          0.9000   -23.0110    51.2090 o          1 ZGF      -0.580100
      6 N05         -0.8600   -23.0300    52.6910 ns         1 ZGF      -0.174000
      7 C06         -2.0000   -23.0700    51.8480 ca         1 ZGF      -0.036000
      8 C07         -2.9320   -24.1150    52.0430 ca         1 ZGF      -0.097000
      9 C08         -4.0570   -24.1670    51.2120 ca         1 ZGF       0.060100
     10 O09         -5.0430   -25.0980    51.2690 os         1 ZGF      -0.343100
     11 O11         -5.4340   -23.4510    49.5650 os         1 ZGF      -0.343100
     12 C12         -4.2790   -23.2320    50.2420 ca         1 ZGF       0.061100
     13 C14         -2.2470   -22.0830    50.8480 ca         1 ZGF       0.130000
     14 Cl15        -1.1880   -20.6860    50.6420 cl         1 ZGF      -0.182000
     15 H1          -6.9440   -24.5940    50.5000 h2         1 ZGF       0.071700
     16 H2          -5.8730   -25.4990    49.3780 h2         1 ZGF       0.071700
     17 H3          -3.6020   -21.4150    49.2780 ha         1 ZGF       0.152000
     18 H4           2.4800   -22.8120    53.2610 hc         1 ZGF       0.063367
     19 H5           1.1410   -21.9730    54.1520 hc         1 ZGF       0.063367
     20 H6           1.2260   -23.6740    54.2470 hc         1 ZGF       0.063367
     21 H7          -1.0600   -23.0510    53.6830 hn         1 ZGF       0.159000
     22 H8          -2.7800   -24.8710    52.8090 ha         1 ZGF       0.142000
@<TRIPOS>BOND
     1     1    10 1   
     2     1    11 1   
     3     1    15 1   
     4     1    16 1   
     5     2    12 ar  
     6     2    13 ar  
     7     2    17 1   
     8     3     4 1   
     9     3    18 1   
    10     3    19 1   
    11     3    20 1   
    12     4     5 2   
    13     4     6 1   
    14     6     7 1   
    15     6    21 1   
    16     7     8 ar  
    17     7    13 ar  
    18     8     9 ar  
    19     8    22 1   
    20     9    10 1   
    21     9    12 ar  
    22    11    12 1   
    23    13    14 1   
@<TRIPOS>SUBSTRUCTURE
     1 ZGF         1 TEMP              0 ****  ****    0 ROOT
