@<TRIPOS>MOLECULE
ZGF
   22    23     1     0     0
SMALL
abcg2


@<TRIPOS>ATOM
      1 C10         -5.8160   -24.7820    50.0620 c5         1 ZGF       0.371600
      2 C13         -3.4660   -22.0770    50.1610 ca         1 ZGF      -0.084000
      3 C02          1.3770   -22.8680    53.5020 c3         1 ZGF      -0.173100
      4 C03          0.3480   -23.0210    52.4100 c          1 ZGF       0.603100
      5 O04          0.6630   -23.2190    51.2400 o          1 ZGF      -0.580100
      6 N05         -0.9470   -22.9060    52.8070 ns         1 ZGF      -0.174000
      7 C06         -2.0510   -23.0140    51.9230 ca         1 ZGF      -0.036000
      8 C07         -2.8370   -24.1790    51.9630 ca         1 ZGF      -0.097000
      9 C08         -3.9130   -24.2530    51.1130 ca         1 ZGF       0.060100
     10 O09         -4.7950   -25.2840    50.9430 os         1 ZGF      -0.343100
     11 O11         -5.3010   -23.5720    49.4740 os         1 ZGF      -0.343100
     12 C12         -4.2160   -23.2260    50.2280 ca         1 ZGF       0.061100
     13 C14         -2.3760   -21.9880    51.0380 ca         1 ZGF       0.130000
     14 CL15        -1.4310   -20.5220    51.0150 cl         1 ZGF      -0.182000
     15 H1          -6.7120   -24.5460    50.6420 h2         1 ZGF       0.071700
     16 H2          -6.0110   -25.5110    49.2800 h2         1 ZGF       0.071700
     17 H3          -3.7000   -21.2760    49.4750 ha         1 ZGF       0.152000
     18 H4           2.0850   -23.6940    53.4380 hc         1 ZGF       0.063367
     19 H5           1.9270   -21.9420    53.3280 hc         1 ZGF       0.063367
     20 H6           0.9420   -22.8370    54.5000 hc         1 ZGF       0.063367
     21 H7          -1.1420   -22.8240    53.7930 hn         1 ZGF       0.159000
     22 H8          -2.5820   -24.9820    52.6400 ha         1 ZGF       0.142000
@<TRIPOS>BOND
     1     1    10 1   
     2     1    11 1   
     3     1    15 1   
     4     1    16 1   
     5     2    12 ar  
     6     2    13 ar  
     7     2    17 1   
     8     3     4 1   
     9     3    18 1   
    10     3    19 1   
    11     3    20 1   
    12     4     5 2   
    13     4     6 1   
    14     6     7 1   
    15     6    21 1   
    16     7     8 ar  
    17     7    13 ar  
    18     8     9 ar  
    19     8    22 1   
    20     9    10 1   
    21     9    12 ar  
    22    11    12 1   
    23    13    14 1   
@<TRIPOS>SUBSTRUCTURE
     1 ZGF         1 TEMP              0 ****  ****    0 ROOT
