@<TRIPOS>MOLECULE
ZGG
   57    61     1     0     0
SMALL
abcg2


@<TRIPOS>ATOM
      1 C10        -13.2020   -45.0270   -22.8980 ca         1 ZGG      -0.102000
      2 C13        -13.0420   -47.8610   -25.2830 ca         1 ZGG      -0.089500
      3 C20        -19.4720   -38.4740   -22.2560 ca         1 ZGG      -0.127000
      4 C21        -20.8110   -38.7480   -22.0040 ca         1 ZGG      -0.030000
      5 C22        -21.2210   -40.0070   -21.5780 ca         1 ZGG      -0.180000
      6 C11        -14.1010   -44.2180   -22.2220 ca         1 ZGG      -0.077500
      7 C12        -12.6370   -46.6380   -24.7340 cp         1 ZGG      -0.071000
      8 C14        -12.1400   -48.6700   -25.9620 ca         1 ZGG      -0.107000
      9 C16        -10.3990   -47.0590   -25.5690 ca         1 ZGG      -0.107000
     10 C23        -20.2800   -41.0220   -21.4000 ca         1 ZGG       0.164100
     11 C25        -21.9240   -42.6160   -20.7120 c3         1 ZGG       0.145900
     12 O24        -20.5640   -42.2820   -21.0080 os         1 ZGG      -0.363100
     13 C19        -18.5280   -39.4770   -22.0720 ca         1 ZGG      -0.050000
     14 C18        -18.9300   -40.7330   -21.6460 ca         1 ZGG      -0.117200
     15 N2         -17.9540   -41.7650   -21.4800 na         1 ZGG       0.112500
     16 C3         -17.5830   -42.3230   -20.3130 cc         1 ZGG      -0.003600
     17 C30        -18.1340   -41.9680   -18.9800 c3         1 ZGG      -0.032100
     18 C29        -17.1490   -42.0540   -17.7880 c3         1 ZGG      -0.076400
     19 C28        -15.6700   -41.9500   -18.1720 c3         1 ZGG      -0.085400
     20 C27        -15.0810   -43.2810   -18.6610 c3         1 ZGG      -0.098400
     21 C26        -16.0260   -44.0760   -19.5580 c3         1 ZGG       0.064600
     22 N4         -16.6430   -43.2340   -20.5920 na         1 ZGG       0.049000
     23 C5         -16.3990   -43.2620   -21.9670 cc         1 ZGG      -0.056000
     24 C1         -17.2360   -42.3400   -22.5140 cd         1 ZGG      -0.151000
     25 C6         -15.4340   -44.1370   -22.6350 ca         1 ZGG      -0.085000
     26 C9         -13.5990   -45.7760   -24.0120 cp         1 ZGG       0.025000
     27 C8         -14.9320   -45.6830   -24.4250 ca         1 ZGG      -0.102000
     28 C7         -15.8370   -44.8790   -23.7490 ca         1 ZGG      -0.077500
     29 C17        -11.3000   -46.2510   -24.8870 ca         1 ZGG      -0.089500
     30 C15        -10.8150   -48.2730   -26.1090 ca         1 ZGG      -0.086000
     31 H1         -12.1800   -45.0830   -22.5490 ha         1 ZGG       0.134000
     32 H2         -14.0660   -48.1900   -25.1600 ha         1 ZGG       0.113000
     33 H3         -19.1620   -37.4920   -22.5860 ha         1 ZGG       0.145000
     34 H4         -21.5550   -37.9740   -22.1400 ha         1 ZGG       0.140000
     35 H5         -22.2670   -40.1960   -21.3940 ha         1 ZGG       0.142000
     36 H6         -13.7580   -43.6340   -21.3790 ha         1 ZGG       0.117000
     37 H7         -12.4720   -49.6160   -26.3720 ha         1 ZGG       0.123500
     38 H8          -9.3720   -46.7370   -25.6850 ha         1 ZGG       0.123500
     39 H9         -21.9100   -43.6600   -20.4120 h1         1 ZGG       0.059033
     40 H10        -22.3040   -41.9990   -19.8960 h1         1 ZGG       0.059033
     41 H11        -22.5540   -42.4920   -21.5960 h1         1 ZGG       0.059033
     42 H12        -17.4760   -39.2960   -22.2480 ha         1 ZGG       0.136000
     43 H13        -18.5100   -40.9480   -19.0720 hc         1 ZGG       0.090700
     44 H14        -19.0110   -42.5960   -18.7980 hc         1 ZGG       0.090700
     45 H15        -17.4090   -41.2450   -17.1050 hc         1 ZGG       0.066700
     46 H16        -17.3170   -42.9830   -17.2400 hc         1 ZGG       0.066700
     47 H17        -15.0910   -41.6130   -17.3110 hc         1 ZGG       0.062200
     48 H18        -15.5450   -41.1810   -18.9400 hc         1 ZGG       0.062200
     49 H19        -14.8560   -43.9220   -17.8050 hc         1 ZGG       0.072200
     50 H20        -14.1380   -43.0980   -19.1800 hc         1 ZGG       0.072200
     51 H21        -16.8400   -44.5110   -18.9800 h1         1 ZGG       0.088200
     52 H22        -15.5120   -44.8890   -20.0610 h1         1 ZGG       0.088200
     53 H23        -17.3750   -42.0350   -23.5350 h4         1 ZGG       0.203000
     54 H24        -15.2660   -46.2360   -25.2940 ha         1 ZGG       0.134000
     55 H25        -16.8650   -44.8270   -24.0820 ha         1 ZGG       0.117000
     56 H26        -10.9690   -45.3020   -24.4870 ha         1 ZGG       0.113000
     57 H27        -10.1120   -48.9030   -26.6400 ha         1 ZGG       0.125000
@<TRIPOS>BOND
     1     1     6 ar  
     2     1    26 ar  
     3     1    31 1   
     4     2     7 ar  
     5     2     8 ar  
     6     2    32 1   
     7     3     4 ar  
     8     3    13 ar  
     9     3    33 1   
    10     4     5 ar  
    11     4    34 1   
    12     5    10 ar  
    13     5    35 1   
    14     6    25 ar  
    15     6    36 1   
    16     7    26 1   
    17     7    29 ar  
    18     8    30 ar  
    19     8    37 1   
    20     9    29 ar  
    21     9    30 ar  
    22     9    38 1   
    23    10    12 1   
    24    10    14 ar  
    25    11    12 1   
    26    11    39 1   
    27    11    40 1   
    28    11    41 1   
    29    13    14 ar  
    30    13    42 1   
    31    14    15 1   
    32    15    16 2   
    33    15    24 1   
    34    16    17 1   
    35    16    22 1   
    36    17    18 1   
    37    17    43 1   
    38    17    44 1   
    39    18    19 1   
    40    18    45 1   
    41    18    46 1   
    42    19    20 1   
    43    19    47 1   
    44    19    48 1   
    45    20    21 1   
    46    20    49 1   
    47    20    50 1   
    48    21    22 1   
    49    21    51 1   
    50    21    52 1   
    51    22    23 1   
    52    23    24 2   
    53    23    25 1   
    54    24    53 1   
    55    25    28 ar  
    56    26    27 ar  
    57    27    28 ar  
    58    27    54 1   
    59    28    55 1   
    60    29    56 1   
    61    30    57 1   
@<TRIPOS>SUBSTRUCTURE
     1 ZGG         1 TEMP              0 ****  ****    0 ROOT
