@<TRIPOS>MOLECULE
ZGG
   57    61     1     0     0
SMALL
No Charge or Current Charge


@<TRIPOS>ATOM
      1 C10        -13.2360   -45.0740   -22.8760 ca         1 ZGG      -0.102000
      2 C13        -13.1070   -47.7850   -25.4810 ca         1 ZGG      -0.089500
      3 C20        -19.3680   -38.6500   -22.5500 ca         1 ZGG      -0.127000
      4 C21        -20.7390   -38.8790   -22.3500 ca         1 ZGG      -0.030000
      5 C22        -21.1780   -40.1110   -21.8340 ca         1 ZGG      -0.180000
      6 C11        -14.1370   -44.2890   -22.1380 ca         1 ZGG      -0.077500
      7 C12        -12.6840   -46.5950   -24.8340 cp         1 ZGG      -0.071000
      8 C14        -12.2060   -48.5720   -26.2180 ca         1 ZGG      -0.107000
      9 C16        -10.4180   -47.0120   -25.6970 ca         1 ZGG      -0.107000
     10 C23        -20.2450   -41.1220   -21.5140 ca         1 ZGG       0.164100
     11 C25        -22.0190   -42.6770   -20.7620 c3         1 ZGG       0.145900
     12 O24        -20.6400   -42.3480   -21.0090 os         1 ZGG      -0.363100
     13 C19        -18.4340   -39.6500   -22.2350 ca         1 ZGG      -0.050000
     14 C18        -18.8670   -40.8870   -21.7170 ca         1 ZGG      -0.117200
     15 N2         -17.9260   -41.8640   -21.4010 na         1 ZGG       0.112500
     16 C3         -17.5600   -42.2620   -20.1500 cc         1 ZGG      -0.003600
     17 C30        -18.0560   -41.7060   -18.8300 c3         1 ZGG      -0.032100
     18 C29        -17.1800   -41.9950   -17.5810 c3         1 ZGG      -0.076400
     19 C28        -15.6550   -41.9240   -17.8440 c3         1 ZGG      -0.085400
     20 C27        -15.0350   -43.2360   -18.3960 c3         1 ZGG      -0.098400
     21 C26        -15.9380   -44.0470   -19.3580 c3         1 ZGG       0.064600
     22 N4         -16.5890   -43.2310   -20.3920 na         1 ZGG       0.049000
     23 C5         -16.4250   -43.3450   -21.7900 cc         1 ZGG      -0.056000
     24 C1         -17.2820   -42.4750   -22.4360 cd         1 ZGG      -0.151000
     25 C6         -15.4790   -44.1680   -22.5450 ca         1 ZGG      -0.085000
     26 C9         -13.6450   -45.7580   -24.0480 cp         1 ZGG       0.025000
     27 C8         -14.9950   -45.6160   -24.4520 ca         1 ZGG      -0.102000
     28 C7         -15.8980   -44.8290   -23.7150 ca         1 ZGG      -0.077500
     29 C17        -11.3200   -46.2260   -24.9580 ca         1 ZGG      -0.089500
     30 C15        -10.8600   -48.1860   -26.3270 ca         1 ZGG      -0.086000
     31 H1         -12.2090   -45.1600   -22.5290 ha         1 ZGG       0.134000
     32 H2         -14.1410   -48.1110   -25.3990 ha         1 ZGG       0.113000
     33 H3         -19.0300   -37.6960   -22.9490 ha         1 ZGG       0.145000
     34 H4         -21.4610   -38.1020   -22.5950 ha         1 ZGG       0.140000
     35 H5         -22.2450   -40.2590   -21.6910 ha         1 ZGG       0.142000
     36 H6         -13.7820   -43.7640   -21.2550 ha         1 ZGG       0.117000
     37 H7         -12.5500   -49.4830   -26.7030 ha         1 ZGG       0.123500
     38 H8          -9.3770   -46.7090   -25.7820 ha         1 ZGG       0.123500
     39 H9         -22.1020   -43.6940   -20.3600 h1         1 ZGG       0.059033
     40 H10        -22.4610   -41.9880   -20.0300 h1         1 ZGG       0.059033
     41 H11        -22.6050   -42.6300   -21.6880 h1         1 ZGG       0.059033
     42 H12        -17.3730   -39.4620   -22.3890 ha         1 ZGG       0.136000
     43 H13        -18.1460   -40.6180   -18.9310 hc         1 ZGG       0.090700
     44 H14        -19.0730   -42.0700   -18.6400 hc         1 ZGG       0.090700
     45 H15        -17.4410   -41.2620   -16.8060 hc         1 ZGG       0.066700
     46 H16        -17.4380   -42.9750   -17.1600 hc         1 ZGG       0.066700
     47 H17        -15.1420   -41.6680   -16.9080 hc         1 ZGG       0.062200
     48 H18        -15.4470   -41.0980   -18.5370 hc         1 ZGG       0.062200
     49 H19        -14.7680   -43.8870   -17.5540 hc         1 ZGG       0.072200
     50 H20        -14.0940   -42.9910   -18.9030 hc         1 ZGG       0.072200
     51 H21        -16.7300   -44.5380   -18.7800 h1         1 ZGG       0.088200
     52 H22        -15.3550   -44.8460   -19.8300 h1         1 ZGG       0.088200
     53 H23        -17.4490   -42.2500   -23.4830 h4         1 ZGG       0.203000
     54 H24        -15.3460   -46.1100   -25.3540 ha         1 ZGG       0.134000
     55 H25        -16.9280   -44.7440   -24.0530 ha         1 ZGG       0.117000
     56 H26        -10.9580   -45.3140   -24.4900 ha         1 ZGG       0.113000
     57 H27        -10.1620   -48.7950   -26.8980 ha         1 ZGG       0.125000
@<TRIPOS>BOND
     1     1     6 ar  
     2     1    26 ar  
     3     1    31 1   
     4     2     7 ar  
     5     2     8 ar  
     6     2    32 1   
     7     3     4 ar  
     8     3    13 ar  
     9     3    33 1   
    10     4     5 ar  
    11     4    34 1   
    12     5    10 ar  
    13     5    35 1   
    14     6    25 ar  
    15     6    36 1   
    16     7    26 1   
    17     7    29 ar  
    18     8    30 ar  
    19     8    37 1   
    20     9    29 ar  
    21     9    30 ar  
    22     9    38 1   
    23    10    12 1   
    24    10    14 ar  
    25    11    12 1   
    26    11    39 1   
    27    11    40 1   
    28    11    41 1   
    29    13    14 ar  
    30    13    42 1   
    31    14    15 1   
    32    15    16 2   
    33    15    24 1   
    34    16    17 1   
    35    16    22 1   
    36    17    18 1   
    37    17    43 1   
    38    17    44 1   
    39    18    19 1   
    40    18    45 1   
    41    18    46 1   
    42    19    20 1   
    43    19    47 1   
    44    19    48 1   
    45    20    21 1   
    46    20    49 1   
    47    20    50 1   
    48    21    22 1   
    49    21    51 1   
    50    21    52 1   
    51    22    23 1   
    52    23    24 2   
    53    23    25 1   
    54    24    53 1   
    55    25    28 ar  
    56    26    27 ar  
    57    27    28 ar  
    58    27    54 1   
    59    28    55 1   
    60    29    56 1   
    61    30    57 1   
@<TRIPOS>SUBSTRUCTURE
     1 ZGG         1 TEMP              0 ****  ****    0 ROOT
