@<TRIPOS>MOLECULE
ZGI
   91    95     1     0     0
SMALL
No Charge or Current Charge


@<TRIPOS>ATOM
      1 C2          11.8280    15.4450     9.9970 c          1 ZGI       0.497800
      2 C3          11.6530    16.9030    10.2660 cc         1 ZGI       0.286200
      3 C5          11.3320    18.8080    11.3440 ca         1 ZGI       0.077400
      4 C7          10.9780    21.0700    12.1580 ca         1 ZGI      -0.116000
      5 C8          11.0240    21.5510    10.8320 ca         1 ZGI      -0.091000
      6 C9          11.2240    20.6560     9.7640 ca         1 ZGI      -0.076000
      7 C10         11.3740    19.2900    10.0520 ca         1 ZGI      -0.195000
      8 O1          11.9680    14.9990     8.8590 o          1 ZGI      -0.489100
      9 C6          11.1330    19.6920    12.4170 ca         1 ZGI      -0.049000
     10 C16         13.8920    11.3510    14.0460 c5         1 ZGI       0.101000
     11 C15         13.6110    12.6700    13.2760 c5         1 ZGI      -0.093400
     12 C12         11.8210    14.4900    11.2290 c3         1 ZGI       0.033700
     13 C13         12.4790    13.1100    10.9420 c3         1 ZGI      -0.069400
     14 C14         12.6300    12.1730    12.1760 c5         1 ZGI      -0.157700
     15 C18         13.1880    10.7840    11.8420 c          1 ZGI       0.563000
     16 C22          8.5220    14.0260    13.1370 c5         1 ZGI       0.063700
     17 C25          8.2680    12.0110    16.5290 c3         1 ZGI       0.064700
     18 C26          9.4110    12.5320    17.4890 c3         1 ZGI      -0.044000
     19 C27          9.4580    14.0830    17.5140 c3         1 ZGI      -0.089100
     20 C28          9.1580    12.0520    18.9480 c3         1 ZGI      -0.089100
     21 C29         10.8020    12.0040    17.0330 c3         1 ZGI      -0.089100
     22 C33          6.2850     7.6010    17.9770 c3         1 ZGI       0.150400
     23 C34          6.3450     7.7690    19.5160 c3         1 ZGI      -0.104100
     24 C35          6.8070     6.1930    17.6030 c3         1 ZGI      -0.104100
     25 C36          4.8290     7.7510    17.4690 c3         1 ZGI      -0.104100
     26 C39          6.9600    14.3600    15.0570 c5         1 ZGI       0.136000
     27 C40          6.6970    15.4540    14.0140 cx         1 ZGI      -0.128700
     28 C43          7.6410    15.2590    12.8570 cx         1 ZGI      -0.133700
     29 C45          6.1520    15.0160    12.6620 cx         1 ZGI      -0.074000
     30 N17         13.9070    10.3960    12.9400 ns         1 ZGI      -0.515900
     31 N20         10.4300    14.3140    11.7040 ns         1 ZGI      -0.496900
     32 N23          8.1250    13.6140    14.5180 n          1 ZGI      -0.386800
     33 N30          8.0700    10.5460    16.6530 ns         1 ZGI      -0.503900
     34 N32          7.1650     8.5740    17.3180 ns         1 ZGI      -0.513900
     35 N4          11.4920    17.4380    11.4950 nd         1 ZGI      -0.489100
     36 O19         13.2360    10.1980    10.7730 o          1 ZGI      -0.557000
     37 O37          6.2290    10.5630    17.9920 o          1 ZGI      -0.658100
     38 S11         11.6330    18.0150     8.8740 ss         1 ZGI       0.119800
     39 H1          10.8240    21.7620    12.9820 ha         1 ZGI       0.120000
     40 H2          10.9040    22.6140    10.6340 ha         1 ZGI       0.117000
     41 H3          11.2600    21.0170     8.7380 ha         1 ZGI       0.127000
     42 H4          11.0990    19.3160    13.4360 ha         1 ZGI       0.136000
     43 H5          13.0880    11.1230    14.7600 h1         1 ZGI       0.042700
     44 H6          14.8440    11.3880    14.5930 h1         1 ZGI       0.042700
     45 H7          14.5350    13.0650    12.8370 hc         1 ZGI       0.064700
     46 H8          13.1930    13.4500    13.9210 hc         1 ZGI       0.064700
     47 H9          12.4080    14.9940    12.0100 h1         1 ZGI       0.110700
     48 H10         11.8870    12.5980    10.1730 hc         1 ZGI       0.069700
     49 H11         13.4690    13.2770    10.4980 hc         1 ZGI       0.069700
     50 H12         11.6520    12.0070    12.6430 hc         1 ZGI       0.096700
     51 H13          8.3200    13.2160    12.4240 h1         1 ZGI       0.084700
     52 H14          7.3320    12.4980    16.8250 h1         1 ZGI       0.079700
     53 H15         10.2370    14.4390    18.1990 hc         1 ZGI       0.039922
     54 H16          9.6830    14.4980    16.5260 hc         1 ZGI       0.039922
     55 H17          8.5030    14.4990    17.8570 hc         1 ZGI       0.039922
     56 H18          9.9000    12.4770    19.6350 hc         1 ZGI       0.039922
     57 H19          8.1650    12.3610    19.2950 hc         1 ZGI       0.039922
     58 H20          9.2250    10.9610    19.0330 hc         1 ZGI       0.039922
     59 H21         11.5870    12.3200    17.7320 hc         1 ZGI       0.039922
     60 H22         10.8170    10.9080    16.9890 hc         1 ZGI       0.039922
     61 H23         11.0720    12.3890    16.0420 hc         1 ZGI       0.039922
     62 H24          7.3800     7.7090    19.8750 hc         1 ZGI       0.044256
     63 H25          5.9300     8.7320    19.8340 hc         1 ZGI       0.044256
     64 H26          5.7680     6.9800    20.0150 hc         1 ZGI       0.044256
     65 H27          7.8400     6.0550    17.9440 hc         1 ZGI       0.044256
     66 H28          6.1920     5.4120    18.0650 hc         1 ZGI       0.044256
     67 H29          6.7840     6.0420    16.5170 hc         1 ZGI       0.044256
     68 H30          4.1900     6.9620    17.8850 hc         1 ZGI       0.044256
     69 H31          4.3960     8.7130    17.7620 hc         1 ZGI       0.044256
     70 H32          4.7880     7.6780    16.3760 hc         1 ZGI       0.044256
     71 H33          7.1970    14.7990    16.0330 h1         1 ZGI       0.060200
     72 H34          6.0920    13.7020    15.2000 h1         1 ZGI       0.060200
     73 H35          6.4810    16.4670    14.3470 hc         1 ZGI       0.094700
     74 H36          4.3090    16.0460    12.1310 hc         1 ZGI       0.043200
     75 H37          5.7550    17.0540    11.9840 hc         1 ZGI       0.043200
     76 H38          5.4230    15.8110    10.7700 hc         1 ZGI       0.043200
     77 H39          6.0680    12.8190    12.9870 hc         1 ZGI       0.043200
     78 H40          4.5080    13.5830    12.7090 hc         1 ZGI       0.043200
     79 H41          5.6310    13.3420    11.3640 hc         1 ZGI       0.043200
     80 H42          8.0800    16.1380    12.3890 hc         1 ZGI       0.108700
     81 H43         14.4420     9.5370    12.8990 hn         1 ZGI       0.324500
     82 H44          9.7100    14.0850    11.0260 hn         1 ZGI       0.321500
     83 H45          8.7020     9.9440    16.1410 hn         1 ZGI       0.311500
     84 H46          7.9260     8.2030    16.7660 hn         1 ZGI       0.301500
     85 C21         10.0440    14.3530    13.0300 c          1 ZGI       0.612100
     86 C24          8.5070    12.3500    15.0170 c          1 ZGI       0.595100
     87 C41          5.3670    16.0380    11.8420 c3         1 ZGI      -0.068100
     88 C42          5.5660    13.6130    12.4240 c3         1 ZGI      -0.068100
     89 O44         10.8100    14.6320    13.9430 o          1 ZGI      -0.597100
     90 C31          7.0790     9.9430    17.3770 c          1 ZGI       0.650100
     91 O38          9.0690    11.5500    14.2720 o          1 ZGI      -0.626100
@<TRIPOS>BOND
     1     1     2 1   
     2     1     8 2   
     3     1    12 1   
     4     2    35 2   
     5     2    38 1   
     6     3     7 ar  
     7     3     9 ar  
     8     3    35 1   
     9     4     5 ar  
    10     4     9 ar  
    11     4    39 1   
    12     5     6 ar  
    13     5    40 1   
    14     6     7 ar  
    15     6    41 1   
    16     7    38 1   
    17     9    42 1   
    18    10    11 1   
    19    10    30 1   
    20    10    43 1   
    21    10    44 1   
    22    11    14 1   
    23    11    45 1   
    24    11    46 1   
    25    12    13 1   
    26    12    31 1   
    27    12    47 1   
    28    13    14 1   
    29    13    48 1   
    30    13    49 1   
    31    14    15 1   
    32    14    50 1   
    33    15    30 1   
    34    15    36 2   
    35    16    28 1   
    36    16    32 1   
    37    16    51 1   
    38    16    85 1   
    39    17    18 1   
    40    17    33 1   
    41    17    52 1   
    42    17    86 1   
    43    18    19 1   
    44    18    20 1   
    45    18    21 1   
    46    19    53 1   
    47    19    54 1   
    48    19    55 1   
    49    20    56 1   
    50    20    57 1   
    51    20    58 1   
    52    21    59 1   
    53    21    60 1   
    54    21    61 1   
    55    22    23 1   
    56    22    24 1   
    57    22    25 1   
    58    22    34 1   
    59    23    62 1   
    60    23    63 1   
    61    23    64 1   
    62    24    65 1   
    63    24    66 1   
    64    24    67 1   
    65    25    68 1   
    66    25    69 1   
    67    25    70 1   
    68    26    27 1   
    69    26    32 1   
    70    26    71 1   
    71    26    72 1   
    72    27    28 1   
    73    27    29 1   
    74    27    73 1   
    75    28    29 1   
    76    28    80 1   
    77    29    87 1   
    78    29    88 1   
    79    30    81 1   
    80    31    82 1   
    81    31    85 1   
    82    32    86 1   
    83    33    83 1   
    84    33    90 1   
    85    34    84 1   
    86    34    90 1   
    87    37    90 2   
    88    74    87 1   
    89    75    87 1   
    90    76    87 1   
    91    77    88 1   
    92    78    88 1   
    93    79    88 1   
    94    85    89 2   
    95    86    91 2   
@<TRIPOS>SUBSTRUCTURE
     1 ZGI         1 TEMP              0 ****  ****    0 ROOT
