@<TRIPOS>MOLECULE
ZGI
   91    95     1     0     0
SMALL
abcg2


@<TRIPOS>ATOM
      1 C2          11.7010    14.9220    10.1650 c          1 ZGI       0.497800
      2 C3          10.9800    16.2140    10.2650 cc         1 ZGI       0.286200
      3 C5           9.9690    17.9690    11.0910 ca         1 ZGI       0.077400
      4 C7           8.7930    19.9750    11.6270 ca         1 ZGI      -0.116000
      5 C8           8.7080    20.2890    10.2630 ca         1 ZGI      -0.091000
      6 C9           9.2430    19.4580     9.2980 ca         1 ZGI      -0.076000
      7 C10          9.8740    18.2920     9.7240 ca         1 ZGI      -0.195000
      8 O1          12.0900    14.5620     9.0810 o          1 ZGI      -0.489100
      9 C6           9.4190    18.8230    12.0520 ca         1 ZGI      -0.049000
     10 C16         14.5160    11.5210    14.2060 c5         1 ZGI       0.101000
     11 C15         13.8240    12.6980    13.5170 c5         1 ZGI      -0.093400
     12 C12         11.8970    14.1130    11.4410 c3         1 ZGI       0.033700
     13 C13         12.7130    12.8500    11.1840 c3         1 ZGI      -0.069400
     14 C14         12.9570    12.0370    12.4440 c5         1 ZGI      -0.157700
     15 C18         13.7010    10.7410    12.1460 c          1 ZGI       0.563000
     16 C22          8.7730    13.9120    13.5850 c5         1 ZGI       0.063700
     17 C25          9.0150    12.1240    16.9480 c3         1 ZGI       0.064700
     18 C26         10.3560    12.3390    17.7060 c3         1 ZGI      -0.044000
     19 C27         10.7510    13.8150    17.6280 c3         1 ZGI      -0.089100
     20 C28         10.1360    11.9850    19.1820 c3         1 ZGI      -0.089100
     21 C29         11.5070    11.4940    17.1550 c3         1 ZGI      -0.089100
     22 C33          5.6610     8.5130    16.6620 c3         1 ZGI       0.150400
     23 C34          4.6730     9.0280    17.7110 c3         1 ZGI      -0.104100
     24 C35          5.8610     7.0110    16.8600 c3         1 ZGI      -0.104100
     25 C36          5.1220     8.7580    15.2520 c3         1 ZGI      -0.104100
     26 C39          7.9350    14.6370    15.7570 c5         1 ZGI       0.136000
     27 C40          7.4790    15.6370    14.7250 cx         1 ZGI      -0.128700
     28 C43          7.9930    15.1940    13.3860 cx         1 ZGI      -0.133700
     29 C45          6.5150    15.2040    13.6560 cx         1 ZGI      -0.074000
     30 N17         14.5620    10.5290    13.1540 ns         1 ZGI      -0.515900
     31 N20         10.6000    13.8300    12.0050 ns         1 ZGI      -0.496900
     32 N23          8.6160    13.5950    14.9900 n          1 ZGI      -0.386800
     33 N30          8.5400    10.7750    17.1230 ns         1 ZGI      -0.503900
     34 N32          6.9860     9.1160    16.8340 ns         1 ZGI      -0.513900
     35 N4          10.6050    16.7870    11.3540 nd         1 ZGI      -0.489100
     36 O19         13.5340    10.0240    11.1740 o          1 ZGI      -0.557000
     37 O37          6.4640    11.2940    16.3860 o          1 ZGI      -0.658100
     38 S11         10.6200    17.0550     8.7830 ss         1 ZGI       0.119800
     39 H1           8.3600    20.6480    12.3550 ha         1 ZGI       0.120000
     40 H2           8.2110    21.2010     9.9590 ha         1 ZGI       0.117000
     41 H3           9.1700    19.7060     8.2480 ha         1 ZGI       0.127000
     42 H4           9.4880    18.5690    13.1010 ha         1 ZGI       0.136000
     43 H5          13.9410    11.1610    15.0650 h1         1 ZGI       0.042700
     44 H6          15.5180    11.7690    14.5560 h1         1 ZGI       0.042700
     45 H7          14.5700    13.3420    13.0430 hc         1 ZGI       0.064700
     46 H8          13.2540    13.3050    14.2170 hc         1 ZGI       0.064700
     47 H9          12.4190    14.7580    12.1540 h1         1 ZGI       0.110700
     48 H10         12.2030    12.2270    10.4450 hc         1 ZGI       0.069700
     49 H11         13.6740    13.1350    10.7480 hc         1 ZGI       0.069700
     50 H12         11.9950    11.7410    12.8820 hc         1 ZGI       0.096700
     51 H13          8.3870    13.0970    12.9640 h1         1 ZGI       0.084700
     52 H14          8.2920    12.7940    17.4180 h1         1 ZGI       0.079700
     53 H15         11.6850    13.9760    18.1690 hc         1 ZGI       0.039922
     54 H16         10.9060    14.1550    16.6040 hc         1 ZGI       0.039922
     55 H17          9.9960    14.4540    18.0890 hc         1 ZGI       0.039922
     56 H18         11.0310    12.2290    19.7560 hc         1 ZGI       0.039922
     57 H19          9.3050    12.5530    19.6050 hc         1 ZGI       0.039922
     58 H20          9.9290    10.9250    19.3300 hc         1 ZGI       0.039922
     59 H21         12.3910    11.6460    17.7780 hc         1 ZGI       0.039922
     60 H22         11.2970    10.4230    17.1660 hc         1 ZGI       0.039922
     61 H23         11.7730    11.7720    16.1360 hc         1 ZGI       0.039922
     62 H24          5.0450     8.8360    18.7190 hc         1 ZGI       0.044256
     63 H25          4.4990    10.0980    17.6080 hc         1 ZGI       0.044256
     64 H26          3.7120     8.5200    17.6080 hc         1 ZGI       0.044256
     65 H27          6.2530     6.7920    17.8560 hc         1 ZGI       0.044256
     66 H28          4.9120     6.4850    16.7550 hc         1 ZGI       0.044256
     67 H29          6.5540     6.6030    16.1220 hc         1 ZGI       0.044256
     68 H30          4.1930     8.2030    15.1110 hc         1 ZGI       0.044256
     69 H31          4.9130     9.8100    15.0740 hc         1 ZGI       0.044256
     70 H32          5.8350     8.4150    14.5020 hc         1 ZGI       0.044256
     71 H33          8.6130    15.1200    16.4620 h1         1 ZGI       0.060200
     72 H34          7.1040    14.2130    16.3260 h1         1 ZGI       0.060200
     73 H35          7.4990    16.6810    15.0140 hc         1 ZGI       0.094700
     74 H36          4.8470    16.5650    13.5280 hc         1 ZGI       0.043200
     75 H37          6.3540    17.2300    12.9020 hc         1 ZGI       0.043200
     76 H38          5.4650    16.0310    11.9650 hc         1 ZGI       0.043200
     77 H39          6.2440    13.1210    14.2780 hc         1 ZGI       0.043200
     78 H40          4.7930    14.1110    14.3200 hc         1 ZGI       0.043200
     79 H41          5.4420    13.5660    12.7780 hc         1 ZGI       0.043200
     80 H42          8.3870    15.9060    12.6710 hc         1 ZGI       0.108700
     81 H43         15.0930     9.6750    13.2330 hn         1 ZGI       0.324500
     82 H44          9.9490    13.3000    11.4440 hn         1 ZGI       0.321500
     83 H45          9.2330    10.0440    17.1640 hn         1 ZGI       0.311500
     84 H46          7.6680     8.5330    17.2930 hn         1 ZGI       0.301500
     85 C21         10.2370    14.1820    13.2530 c          1 ZGI       0.612100
     86 C24          9.1150    12.4340    15.4510 c          1 ZGI       0.595100
     87 C41          5.7560    16.3210    12.9760 c3         1 ZGI      -0.068100
     88 C42          5.7180    13.9280    13.7700 c3         1 ZGI      -0.068100
     89 O44         10.9770    14.7340    14.0470 o          1 ZGI      -0.597100
     90 C31          7.2680    10.4400    16.7520 c          1 ZGI       0.650100
     91 O38          9.6340    11.6280    14.6870 o          1 ZGI      -0.626100
@<TRIPOS>BOND
     1     1     2 1   
     2     1     8 2   
     3     1    12 1   
     4     2    35 2   
     5     2    38 1   
     6     3     7 ar  
     7     3     9 ar  
     8     3    35 1   
     9     4     5 ar  
    10     4     9 ar  
    11     4    39 1   
    12     5     6 ar  
    13     5    40 1   
    14     6     7 ar  
    15     6    41 1   
    16     7    38 1   
    17     9    42 1   
    18    10    11 1   
    19    10    30 1   
    20    10    43 1   
    21    10    44 1   
    22    11    14 1   
    23    11    45 1   
    24    11    46 1   
    25    12    13 1   
    26    12    31 1   
    27    12    47 1   
    28    13    14 1   
    29    13    48 1   
    30    13    49 1   
    31    14    15 1   
    32    14    50 1   
    33    15    30 1   
    34    15    36 2   
    35    16    28 1   
    36    16    32 1   
    37    16    51 1   
    38    16    85 1   
    39    17    18 1   
    40    17    33 1   
    41    17    52 1   
    42    17    86 1   
    43    18    19 1   
    44    18    20 1   
    45    18    21 1   
    46    19    53 1   
    47    19    54 1   
    48    19    55 1   
    49    20    56 1   
    50    20    57 1   
    51    20    58 1   
    52    21    59 1   
    53    21    60 1   
    54    21    61 1   
    55    22    23 1   
    56    22    24 1   
    57    22    25 1   
    58    22    34 1   
    59    23    62 1   
    60    23    63 1   
    61    23    64 1   
    62    24    65 1   
    63    24    66 1   
    64    24    67 1   
    65    25    68 1   
    66    25    69 1   
    67    25    70 1   
    68    26    27 1   
    69    26    32 1   
    70    26    71 1   
    71    26    72 1   
    72    27    28 1   
    73    27    29 1   
    74    27    73 1   
    75    28    29 1   
    76    28    80 1   
    77    29    87 1   
    78    29    88 1   
    79    30    81 1   
    80    31    82 1   
    81    31    85 1   
    82    32    86 1   
    83    33    83 1   
    84    33    90 1   
    85    34    84 1   
    86    34    90 1   
    87    37    90 2   
    88    74    87 1   
    89    75    87 1   
    90    76    87 1   
    91    77    88 1   
    92    78    88 1   
    93    79    88 1   
    94    85    89 2   
    95    86    91 2   
@<TRIPOS>SUBSTRUCTURE
     1 ZGI         1 TEMP              0 ****  ****    0 ROOT
