@<TRIPOS>MOLECULE
ZGJ
   56    60     1     0     0
SMALL
abcg2


@<TRIPOS>ATOM
      1 C30         21.2470    42.3930   -19.8690 c3         1 ZGJ       0.144900
      2 O29         20.0440    42.1010   -20.5820 os         1 ZGJ      -0.367100
      3 C11         19.9660    40.9460   -21.2850 ca         1 ZGJ       0.164100
      4 C10         21.0230    40.0520   -21.4440 ca         1 ZGJ      -0.189000
      5 C9          20.8510    38.9070   -22.2160 ca         1 ZGJ      -0.033000
      6 C8          19.6360    38.6390   -22.8310 ca         1 ZGJ      -0.137000
      7 C7          18.5770    39.5230   -22.6590 ca         1 ZGJ      -0.041000
      8 C6          18.7220    40.6770   -21.8900 ca         1 ZGJ      -0.116000
      9 C5          17.6080    41.6180   -21.7600 cc         1 ZGJ      -0.037000
     10 C1          16.8940    42.2370   -22.7260 cd         1 ZGJ      -0.146000
     11 N4          17.0710    42.0390   -20.5290 na         1 ZGJ      -0.032700
     12 C28         17.3360    41.3970   -19.2340 c3         1 ZGJ       0.079600
     13 C27         17.6730    42.3670   -18.1130 c3         1 ZGJ      -0.097400
     14 C26         16.4780    43.1780   -17.6200 c3         1 ZGJ      -0.094400
     15 C25         15.9270    44.1580   -18.6440 c3         1 ZGJ       0.062600
     16 N24         15.3160    43.5170   -19.8280 nu         1 ZGJ      -0.350800
     17 C3          16.0710    42.9060   -20.7620 cz         1 ZGJ       0.078500
     18 N2          15.9400    43.0400   -22.1030 na         1 ZGJ       0.090200
     19 C12         15.0600    43.9490   -22.7680 ca         1 ZGJ      -0.075200
     20 C17         13.6850    43.8090   -22.6330 ca         1 ZGJ      -0.095500
     21 C16         12.8420    44.7090   -23.2700 ca         1 ZGJ      -0.091000
     22 C15         13.3540    45.7430   -24.0600 cp         1 ZGJ       0.025000
     23 C14         14.7450    45.8490   -24.1930 ca         1 ZGJ      -0.091000
     24 C13         15.5960    44.9660   -23.5490 ca         1 ZGJ      -0.095500
     25 C18         12.4520    46.7010   -24.7370 cp         1 ZGJ      -0.077000
     26 C23         12.8070    48.0480   -24.8700 ca         1 ZGJ      -0.088000
     27 C22         11.9580    48.9490   -25.5020 ca         1 ZGJ      -0.105500
     28 C21         10.7390    48.5190   -26.0160 ca         1 ZGJ      -0.082000
     29 C20         10.3750    47.1820   -25.8930 ca         1 ZGJ      -0.105500
     30 C19         11.2220    46.2820   -25.2580 ca         1 ZGJ      -0.088000
     31 H1          21.0620    43.3320   -19.3540 h1         1 ZGJ       0.053367
     32 H2          21.4650    41.6090   -19.1400 h1         1 ZGJ       0.053367
     33 H3          22.0900    42.5060   -20.5530 h1         1 ZGJ       0.053367
     34 H4          21.9790    40.2470   -20.9820 ha         1 ZGJ       0.134000
     35 H5          21.6820    38.2220   -22.3330 ha         1 ZGJ       0.134000
     36 H6          19.5060    37.7470   -23.4300 ha         1 ZGJ       0.138000
     37 H7          17.6170    39.3220   -23.1160 ha         1 ZGJ       0.124000
     38 H8          16.9820    42.2020   -23.7960 h4         1 ZGJ       0.200000
     39 H9          16.4510    40.8100   -18.9750 h1         1 ZGJ       0.085200
     40 H10         18.1570    40.7080   -19.4030 h1         1 ZGJ       0.085200
     41 H11         18.0620    41.7690   -17.2860 hc         1 ZGJ       0.075200
     42 H12         18.4780    43.0310   -18.4380 hc         1 ZGJ       0.075200
     43 H13         16.7780    43.7620   -16.7470 hc         1 ZGJ       0.074200
     44 H14         15.6790    42.5030   -17.2980 hc         1 ZGJ       0.074200
     45 H15         16.7160    44.8430   -18.9680 h1         1 ZGJ       0.067200
     46 H16         15.1300    44.7490   -18.1970 h1         1 ZGJ       0.067200
     47 H17         14.5510    44.0480   -20.2190 hn         1 ZGJ       0.346000
     48 H18         13.2770    43.0020   -22.0370 ha         1 ZGJ       0.132500
     49 H19         11.7730    44.6080   -23.1400 ha         1 ZGJ       0.140500
     50 H20         15.1680    46.6280   -24.8130 ha         1 ZGJ       0.140500
     51 H21         16.6690    45.0600   -23.6500 ha         1 ZGJ       0.132500
     52 H22         13.7440    48.4000   -24.4570 ha         1 ZGJ       0.113000
     53 H23         12.2470    49.9890   -25.5870 ha         1 ZGJ       0.125500
     54 H24         10.0770    49.2210   -26.5090 ha         1 ZGJ       0.127000
     55 H25          9.4310    46.8360   -26.2960 ha         1 ZGJ       0.125500
     56 H26         10.9350    45.2410   -25.1840 ha         1 ZGJ       0.113000
@<TRIPOS>BOND
     1     1     2 1   
     2     1    31 1   
     3     1    32 1   
     4     1    33 1   
     5     2     3 1   
     6     3     4 ar  
     7     3     8 ar  
     8     4     5 ar  
     9     4    34 1   
    10     5     6 ar  
    11     5    35 1   
    12     6     7 ar  
    13     6    36 1   
    14     7     8 ar  
    15     7    37 1   
    16     8     9 1   
    17     9    10 2   
    18     9    11 1   
    19    10    18 1   
    20    10    38 1   
    21    11    12 1   
    22    11    17 2   
    23    12    13 1   
    24    12    39 1   
    25    12    40 1   
    26    13    14 1   
    27    13    41 1   
    28    13    42 1   
    29    14    15 1   
    30    14    43 1   
    31    14    44 1   
    32    15    16 1   
    33    15    45 1   
    34    15    46 1   
    35    16    17 1   
    36    16    47 1   
    37    17    18 1   
    38    18    19 1   
    39    19    20 ar  
    40    19    24 ar  
    41    20    21 ar  
    42    20    48 1   
    43    21    22 ar  
    44    21    49 1   
    45    22    23 ar  
    46    22    25 1   
    47    23    24 ar  
    48    23    50 1   
    49    24    51 1   
    50    25    26 ar  
    51    25    30 ar  
    52    26    27 ar  
    53    26    52 1   
    54    27    28 ar  
    55    27    53 1   
    56    28    29 ar  
    57    28    54 1   
    58    29    30 ar  
    59    29    55 1   
    60    30    56 1   
@<TRIPOS>SUBSTRUCTURE
     1 ZGJ         1 TEMP              0 ****  ****    0 ROOT
