@<TRIPOS>MOLECULE
ZGJ
   56    60     1     0     0
SMALL
No Charge or Current Charge


@<TRIPOS>ATOM
      1 C30         21.0540    42.9490   -20.4880 c3         1 ZGJ       0.144900
      2 O29         19.8070    42.3470   -20.8820 os         1 ZGJ      -0.367100
      3 C11         19.7400    41.1430   -21.5570 ca         1 ZGJ       0.164100
      4 C10         20.9070    40.4370   -21.9310 ca         1 ZGJ      -0.189000
      5 C9          20.8090    39.2350   -22.6510 ca         1 ZGJ      -0.033000
      6 C8          19.5480    38.7340   -23.0080 ca         1 ZGJ      -0.137000
      7 C7          18.3850    39.4280   -22.6400 ca         1 ZGJ      -0.041000
      8 C6          18.4690    40.6270   -21.9040 ca         1 ZGJ      -0.116000
      9 C5          17.2310    41.3170   -21.5380 cc         1 ZGJ      -0.037000
     10 C1          16.2780    41.6270   -22.4800 cd         1 ZGJ      -0.146000
     11 N4          16.8310    41.8240   -20.2950 na         1 ZGJ      -0.032700
     12 C28         17.4330    41.5060   -18.9860 c3         1 ZGJ       0.079600
     13 C27         17.7760    42.7340   -18.1150 c3         1 ZGJ      -0.097400
     14 C26         16.5430    43.5220   -17.6150 c3         1 ZGJ      -0.094400
     15 C25         15.7920    44.2910   -18.7210 c3         1 ZGJ       0.062600
     16 N24         15.0950    43.3950   -19.6500 nu         1 ZGJ      -0.350800
     17 C3          15.6620    42.5050   -20.4880 cz         1 ZGJ       0.078500
     18 N2          15.2890    42.2530   -21.7650 na         1 ZGJ       0.090200
     19 C12         14.6880    43.3060   -22.4620 ca         1 ZGJ      -0.075200
     20 C17         13.3390    43.2070   -22.8440 ca         1 ZGJ      -0.095500
     21 C16         12.7210    44.2610   -23.5400 ca         1 ZGJ      -0.091000
     22 C15         13.4330    45.4400   -23.8710 cp         1 ZGJ       0.025000
     23 C14         14.7930    45.5220   -23.4790 ca         1 ZGJ      -0.091000
     24 C13         15.4140    44.4700   -22.7840 ca         1 ZGJ      -0.095500
     25 C18         12.7720    46.5620   -24.6120 cp         1 ZGJ      -0.077000
     26 C23         13.1010    47.9150   -24.3380 ca         1 ZGJ      -0.088000
     27 C22         12.4800    48.9680   -25.0320 ca         1 ZGJ      -0.105500
     28 C21         11.5180    48.6920   -26.0170 ca         1 ZGJ      -0.082000
     29 C20         11.1770    47.3610   -26.3050 ca         1 ZGJ      -0.105500
     30 C19         11.7970    46.3080   -25.6100 ca         1 ZGJ      -0.088000
     31 H1          20.8700    43.8950   -19.9640 h1         1 ZGJ       0.053367
     32 H2          21.6100    42.2890   -19.8110 h1         1 ZGJ       0.053367
     33 H3          21.6790    43.1640   -21.3650 h1         1 ZGJ       0.053367
     34 H4          21.8960    40.8070   -21.6790 ha         1 ZGJ       0.134000
     35 H5          21.7100    38.6960   -22.9380 ha         1 ZGJ       0.134000
     36 H6          19.4720    37.8060   -23.5700 ha         1 ZGJ       0.138000
     37 H7          17.4120    39.0260   -22.9180 ha         1 ZGJ       0.124000
     38 H8          16.2470    41.4780   -23.5530 h4         1 ZGJ       0.200000
     39 H9          16.7370    40.8580   -18.4390 h1         1 ZGJ       0.085200
     40 H10         18.3470    40.9250   -19.1540 h1         1 ZGJ       0.085200
     41 H11         18.3410    42.3840   -17.2420 hc         1 ZGJ       0.075200
     42 H12         18.4450    43.4030   -18.6690 hc         1 ZGJ       0.075200
     43 H13         16.8820    44.2510   -16.8680 hc         1 ZGJ       0.074200
     44 H14         15.8490    42.8490   -17.0960 hc         1 ZGJ       0.074200
     45 H15         16.5010    44.9210   -19.2760 h1         1 ZGJ       0.067200
     46 H16         15.0580    44.9590   -18.2510 h1         1 ZGJ       0.067200
     47 H17         14.1350    43.6650   -19.8580 hn         1 ZGJ       0.346000
     48 H18         12.7660    42.3150   -22.5990 ha         1 ZGJ       0.132500
     49 H19         11.6720    44.1670   -23.8120 ha         1 ZGJ       0.140500
     50 H20         15.3770    46.4050   -23.7270 ha         1 ZGJ       0.140500
     51 H21         16.4600    44.5600   -22.4970 ha         1 ZGJ       0.132500
     52 H22         13.8330    48.1530   -23.5700 ha         1 ZGJ       0.113000
     53 H23         12.7430    49.9990   -24.8040 ha         1 ZGJ       0.125500
     54 H24         11.0380    49.5070   -26.5540 ha         1 ZGJ       0.127000
     55 H25         10.4340    47.1440   -27.0700 ha         1 ZGJ       0.125500
     56 H26         11.5270    45.2850   -25.8600 ha         1 ZGJ       0.113000
@<TRIPOS>BOND
     1     1     2 1   
     2     1    31 1   
     3     1    32 1   
     4     1    33 1   
     5     2     3 1   
     6     3     4 ar  
     7     3     8 ar  
     8     4     5 ar  
     9     4    34 1   
    10     5     6 ar  
    11     5    35 1   
    12     6     7 ar  
    13     6    36 1   
    14     7     8 ar  
    15     7    37 1   
    16     8     9 1   
    17     9    10 2   
    18     9    11 1   
    19    10    18 1   
    20    10    38 1   
    21    11    12 1   
    22    11    17 2   
    23    12    13 1   
    24    12    39 1   
    25    12    40 1   
    26    13    14 1   
    27    13    41 1   
    28    13    42 1   
    29    14    15 1   
    30    14    43 1   
    31    14    44 1   
    32    15    16 1   
    33    15    45 1   
    34    15    46 1   
    35    16    17 1   
    36    16    47 1   
    37    17    18 1   
    38    18    19 1   
    39    19    20 ar  
    40    19    24 ar  
    41    20    21 ar  
    42    20    48 1   
    43    21    22 ar  
    44    21    49 1   
    45    22    23 ar  
    46    22    25 1   
    47    23    24 ar  
    48    23    50 1   
    49    24    51 1   
    50    25    26 ar  
    51    25    30 ar  
    52    26    27 ar  
    53    26    52 1   
    54    27    28 ar  
    55    27    53 1   
    56    28    29 ar  
    57    28    54 1   
    58    29    30 ar  
    59    29    55 1   
    60    30    56 1   
@<TRIPOS>SUBSTRUCTURE
     1 ZGJ         1 TEMP              0 ****  ****    0 ROOT
