@<TRIPOS>MOLECULE
ZGK
   23    23     1     0     0
SMALL
No Charge or Current Charge


@<TRIPOS>ATOM
      1 C10          0.9820   -22.8700    52.7330 c          1 ZGK       0.603100
      2 C01         -0.0100   -17.5120    51.9090 c3         1 ZGK       0.156900
      3 C03         -0.8990   -19.7990    51.5780 ca         1 ZGK       0.082100
      4 C04         -2.0670   -19.3190    50.9420 ca         1 ZGK      -0.165000
      5 C05         -3.0420   -20.2190    50.4860 ca         1 ZGK      -0.104000
      6 C06         -2.8600   -21.5990    50.6610 ca         1 ZGK      -0.115000
      7 C07         -1.7020   -22.0850    51.2910 ca         1 ZGK      -0.107000
      8 C08         -0.7110   -21.1900    51.7550 ca         1 ZGK      -0.044000
      9 N09          0.4850   -21.6170    52.4020 ns         1 ZGK      -0.141000
     10 O11          0.4140   -23.9310    52.4990 o          1 ZGK      -0.597100
     11 C12          2.3360   -22.8340    53.4360 c3         1 ZGK      -0.176100
     12 H1           0.8750   -17.0300    52.3420 h1         1 ZGK       0.042700
     13 H2          -0.0730   -17.2200    50.8530 h1         1 ZGK       0.042700
     14 H3          -0.8950   -17.1300    52.4330 h1         1 ZGK       0.042700
     15 H4          -2.2340   -18.2560    50.7940 ha         1 ZGK       0.115000
     16 H5          -3.9410   -19.8480    49.9970 ha         1 ZGK       0.114000
     17 H6          -3.6180   -22.2950    50.3060 ha         1 ZGK       0.118000
     18 H7          -1.5960   -23.1590    51.4080 ha         1 ZGK       0.153000
     19 H8           1.0880   -20.8510    52.6720 hn         1 ZGK       0.166000
     20 H9           3.0480   -22.2820    52.8110 hc         1 ZGK       0.063367
     21 H10          2.2610   -22.1950    54.3230 hc         1 ZGK       0.063367
     22 H11          2.7090   -23.8330    53.6870 hc         1 ZGK       0.063367
     23 O02          0.0850   -18.9430    52.0410 os         1 ZGK      -0.376100
@<TRIPOS>BOND
     1     1     9 1   
     2     1    10 2   
     3     1    11 1   
     4     2    12 1   
     5     2    13 1   
     6     2    14 1   
     7     2    23 1   
     8     3     4 ar  
     9     3     8 ar  
    10     3    23 1   
    11     4     5 ar  
    12     4    15 1   
    13     5     6 ar  
    14     5    16 1   
    15     6     7 ar  
    16     6    17 1   
    17     7     8 ar  
    18     7    18 1   
    19     8     9 1   
    20     9    19 1   
    21    11    20 1   
    22    11    21 1   
    23    11    22 1   
@<TRIPOS>SUBSTRUCTURE
     1 ZGK         1 TEMP              0 ****  ****    0 ROOT
