@<TRIPOS>MOLECULE
ZGK
   23    23     1     0     0
SMALL
abcg2


@<TRIPOS>ATOM
      1 C10          0.9660   -22.7780    52.7020 c          1 ZGK       0.603100
      2 C01         -0.0940   -17.5670    52.0100 c3         1 ZGK       0.156900
      3 C03         -0.9170   -19.7830    51.6030 ca         1 ZGK       0.082100
      4 C04         -2.0690   -19.3210    50.9820 ca         1 ZGK      -0.165000
      5 C05         -3.0080   -20.2300    50.4930 ca         1 ZGK      -0.104000
      6 C06         -2.7910   -21.5930    50.6260 ca         1 ZGK      -0.115000
      7 C07         -1.6360   -22.0650    51.2470 ca         1 ZGK      -0.107000
      8 C08         -0.6910   -21.1710    51.7430 ca         1 ZGK      -0.044000
      9 N09          0.5040   -21.5390    52.3820 ns         1 ZGK      -0.141000
     10 O11          0.3540   -23.8170    52.4680 o          1 ZGK      -0.597100
     11 C12          2.3280   -22.7910    53.3570 c3         1 ZGK      -0.176100
     12 H1           0.7900   -17.1380    52.4750 h1         1 ZGK       0.042700
     13 H2          -0.1500   -17.2580    50.9640 h1         1 ZGK       0.042700
     14 H3          -0.9890   -17.2340    52.5400 h1         1 ZGK       0.042700
     15 H4          -2.2420   -18.2610    50.8750 ha         1 ZGK       0.115000
     16 H5          -3.9040   -19.8600    50.0110 ha         1 ZGK       0.114000
     17 H6          -3.5160   -22.3010    50.2470 ha         1 ZGK       0.118000
     18 H7          -1.4600   -23.1220    51.3520 ha         1 ZGK       0.153000
     19 H8           1.0860   -20.7580    52.6450 hn         1 ZGK       0.166000
     20 H9           3.0680   -23.0920    52.6120 hc         1 ZGK       0.063367
     21 H10          2.6160   -21.8210    53.7610 hc         1 ZGK       0.063367
     22 H11          2.3290   -23.5350    54.1520 hc         1 ZGK       0.063367
     23 O02          0.0600   -18.9830    52.1130 os         1 ZGK      -0.376100
@<TRIPOS>BOND
     1     1     9 1   
     2     1    10 2   
     3     1    11 1   
     4     2    12 1   
     5     2    13 1   
     6     2    14 1   
     7     2    23 1   
     8     3     4 ar  
     9     3     8 ar  
    10     3    23 1   
    11     4     5 ar  
    12     4    15 1   
    13     5     6 ar  
    14     5    16 1   
    15     6     7 ar  
    16     6    17 1   
    17     7     8 ar  
    18     7    18 1   
    19     8     9 1   
    20     9    19 1   
    21    11    20 1   
    22    11    21 1   
    23    11    22 1   
@<TRIPOS>SUBSTRUCTURE
     1 ZGK         1 TEMP              0 ****  ****    0 ROOT
