@<TRIPOS>MOLECULE
ZGL
   19    18     1     0     0
SMALL
No Charge or Current Charge


@<TRIPOS>ATOM
      1 C           33.9500    57.9320    45.2960 c          1 ZGL       0.598100
      2 N           32.1980    56.7050    46.7730 n8         1 ZGL      -1.033200
      3 O           33.9690    58.6490    44.3050 o          1 ZGL      -0.642100
      4 N1          34.8910    56.9740    45.4440 nt         1 ZGL      -0.612000
      5 CA          32.8780    58.0110    46.4500 c3         1 ZGL       0.080500
      6 CB          31.8120    59.1200    46.1980 c3         1 ZGL      -0.070400
      7 CD          31.5850    59.9190    48.6220 c          1 ZGL       0.709000
      8 CG          30.8350    59.4140    47.3750 c3         1 ZGL      -0.215400
      9 OE1         31.9190    59.1030    49.4670 o          1 ZGL      -0.739000
     10 OE2         31.8430    61.1100    48.6940 o          1 ZGL      -0.739000
     11 HN          31.5160    56.8760    47.5240 hn         1 ZGL       0.414000
     12 HNA         31.6070    56.4270    45.9790 hn         1 ZGL       0.414000
     13 HN1         35.5980    56.8540    44.7350 hn         1 ZGL       0.311500
     14 HN1A        34.8380    56.3510    46.2370 hn         1 ZGL       0.311500
     15 HA          33.4600    58.3080    47.3350 h1         1 ZGL       0.104700
     16 HB          32.3310    60.0540    45.9510 hc         1 ZGL       0.035700
     17 HBA         31.2250    58.8540    45.3100 hc         1 ZGL       0.035700
     18 HG          30.1780    60.2060    46.9940 hc         1 ZGL       0.017700
     19 HGA         30.2980    58.4830    47.5920 hc         1 ZGL       0.017700
@<TRIPOS>BOND
     1     1     3 2   
     2     1     4 1   
     3     1     5 1   
     4     2     5 1   
     5     2    11 1   
     6     2    12 1   
     7     4    13 1   
     8     4    14 1   
     9     5     6 1   
    10     5    15 1   
    11     6     8 1   
    12     6    16 1   
    13     6    17 1   
    14     7     8 1   
    15     7     9 1   
    16     7    10 1   
    17     8    18 1   
    18     8    19 1   
@<TRIPOS>SUBSTRUCTURE
     1 ZGL         1 TEMP              0 ****  ****    0 ROOT
