@<TRIPOS>MOLECULE
ZGL
   19    18     1     0     0
SMALL
abcg2


@<TRIPOS>ATOM
      1 C           34.0010    58.0440    45.3720 c          1 ZGL       0.598100
      2 N           32.5770    56.9210    47.0390 n8         1 ZGL      -1.033200
      3 O           34.3000    58.9770    44.6370 o          1 ZGL      -0.642100
      4 N1          34.5330    56.8210    45.2690 nt         1 ZGL      -0.612000
      5 CA          33.0020    58.2110    46.5170 c3         1 ZGL       0.080500
      6 CB          31.8640    59.1570    46.1150 c3         1 ZGL      -0.070400
      7 CD          31.4280    59.7410    48.5480 c          1 ZGL       0.709000
      8 CG          30.8040    59.3100    47.2080 c3         1 ZGL      -0.215400
      9 OE1         31.4860    58.8790    49.4530 o          1 ZGL      -0.739000
     10 OE2         31.8600    60.9100    48.6080 o          1 ZGL      -0.739000
     11 HN          32.1840    57.0640    47.9630 hn         1 ZGL       0.414000
     12 HNA         31.8280    56.5460    46.4680 hn         1 ZGL       0.414000
     13 HN1         35.2350    56.6170    44.5770 hn         1 ZGL       0.311500
     14 HN1A        34.2500    56.1080    45.9210 hn         1 ZGL       0.311500
     15 HA          33.5790    58.6940    47.3150 h1         1 ZGL       0.104700
     16 HB          32.2770    60.1360    45.8700 hc         1 ZGL       0.035700
     17 HBA         31.3870    58.7830    45.2030 hc         1 ZGL       0.035700
     18 HG          30.0810    60.0600    46.8750 hc         1 ZGL       0.017700
     19 HGA         30.2550    58.3730    47.3230 hc         1 ZGL       0.017700
@<TRIPOS>BOND
     1     1     3 2   
     2     1     4 1   
     3     1     5 1   
     4     2     5 1   
     5     2    11 1   
     6     2    12 1   
     7     4    13 1   
     8     4    14 1   
     9     5     6 1   
    10     5    15 1   
    11     6     8 1   
    12     6    16 1   
    13     6    17 1   
    14     7     8 1   
    15     7     9 1   
    16     7    10 1   
    17     8    18 1   
    18     8    19 1   
@<TRIPOS>SUBSTRUCTURE
     1 ZGL         1 TEMP              0 ****  ****    0 ROOT
