@<TRIPOS>MOLECULE
ZGM
   21    20     1     0     0
SMALL
abcg2


@<TRIPOS>ATOM
      1 OAC         22.6540   -22.7310    72.9920 oh         1 ZGM      -0.670000
      2 CAM         22.0770   -21.8840    73.9680 c3         1 ZGM       0.171300
      3 CAF         21.9450   -20.4970    73.3590 c3         1 ZGM      -0.051400
      4 CAK         23.2760   -19.8830    72.9530 c3         1 ZGM      -0.197400
      5 CAI         23.2120   -18.4520    72.3830 c          1 ZGM       0.715000
      6 OAD         22.0890   -17.9220    72.2620 o          1 ZGM      -0.754500
      7 OAA         24.3110   -17.9410    72.0820 o          1 ZGM      -0.754500
      8 CAG         20.7230   -22.4480    74.4210 c3         1 ZGM      -0.213400
      9 CAL         20.1100   -21.7060    75.5850 c          1 ZGM       0.458100
     10 CAJ         18.6530   -21.2480    75.4500 c          1 ZGM       0.652000
     11 OAE         18.4400   -20.5590    74.4360 o          1 ZGM      -0.708000
     12 OAB         17.8700   -21.5920    76.3470 o          1 ZGM      -0.708000
     13 H1          22.8380   -23.5820    73.4000 ho         1 ZGM       0.401000
     14 H2          22.7320   -21.8200    74.8490 h1         1 ZGM       0.020700
     15 H3          21.4520   -19.8450    74.0840 hc         1 ZGM       0.065200
     16 H4          21.2710   -20.5510    72.4980 hc         1 ZGM       0.065200
     17 H5          23.7730   -20.5170    72.2120 hc         1 ZGM       0.010200
     18 H6          23.9520   -19.8760    73.8170 hc         1 ZGM       0.010200
     19 H8          20.0360   -22.4830    73.5740 hc         1 ZGM       0.039700
     20 H9          20.8690   -23.4830    74.7560 hc         1 ZGM       0.039700
     21 O10         20.7560   -21.4600    76.5850 o          1 ZGM      -0.591100
@<TRIPOS>BOND
     1     1     2 1   
     2     1    13 1   
     3     2     3 1   
     4     2     8 1   
     5     2    14 1   
     6     3     4 1   
     7     3    15 1   
     8     3    16 1   
     9     4     5 1   
    10     4    17 1   
    11     4    18 1   
    12     5     6 1   
    13     5     7 1   
    14     8     9 1   
    15     8    19 1   
    16     8    20 1   
    17     9    10 1   
    18     9    21 2   
    19    10    11 1   
    20    10    12 1   
@<TRIPOS>SUBSTRUCTURE
     1 ZGM         1 TEMP              0 ****  ****    0 ROOT
