@<TRIPOS>MOLECULE
ZGM
   21    20     1     0     0
SMALL
No Charge or Current Charge


@<TRIPOS>ATOM
      1 OAC         22.5850   -22.8410    72.8650 oh         1 ZGM      -0.670000
      2 CAM         22.0870   -21.9930    73.9030 c3         1 ZGM       0.171300
      3 CAF         21.9100   -20.5480    73.3600 c3         1 ZGM      -0.051400
      4 CAK         23.2290   -19.8660    72.9030 c3         1 ZGM      -0.197400
      5 CAI         22.9500   -18.4160    72.4700 c          1 ZGM       0.715000
      6 OAD         22.6460   -18.2090    71.3050 o          1 ZGM      -0.754500
      7 OAA         22.9930   -17.5410    73.3210 o          1 ZGM      -0.754500
      8 CAG         20.7820   -22.6240    74.4330 c3         1 ZGM      -0.213400
      9 CAL         20.2480   -21.8680    75.6670 c          1 ZGM       0.458100
     10 CAJ         19.0220   -20.8250    75.4410 c          1 ZGM       0.652000
     11 OAE         18.1470   -21.1080    74.6260 o          1 ZGM      -0.708000
     12 OAB         18.9990   -19.7940    76.1110 o          1 ZGM      -0.708000
     13 H1          22.7010   -23.7310    73.2590 ho         1 ZGM       0.401000
     14 H2          22.8110   -21.9640    74.7290 h1         1 ZGM       0.020700
     15 H3          21.4620   -19.9250    74.1430 hc         1 ZGM       0.065200
     16 H4          21.1990   -20.5590    72.5240 hc         1 ZGM       0.065200
     17 H5          23.6010   -20.4530    72.0540 hc         1 ZGM       0.010200
     18 H6          23.8940   -19.8850    73.7760 hc         1 ZGM       0.010200
     19 H8          20.0410   -22.5960    73.6250 hc         1 ZGM       0.039700
     20 H9          20.9840   -23.6630    74.7200 hc         1 ZGM       0.039700
     21 O10         20.7480   -22.0720    76.7790 o          1 ZGM      -0.591100
@<TRIPOS>BOND
     1     1     2 1   
     2     1    13 1   
     3     2     3 1   
     4     2     8 1   
     5     2    14 1   
     6     3     4 1   
     7     3    15 1   
     8     3    16 1   
     9     4     5 1   
    10     4    17 1   
    11     4    18 1   
    12     5     6 1   
    13     5     7 1   
    14     8     9 1   
    15     8    19 1   
    16     8    20 1   
    17     9    10 1   
    18     9    21 2   
    19    10    11 1   
    20    10    12 1   
@<TRIPOS>SUBSTRUCTURE
     1 ZGM         1 TEMP              0 ****  ****    0 ROOT
