@<TRIPOS>MOLECULE
ZGO
  100   103     1     0     0
SMALL
No Charge or Current Charge


@<TRIPOS>ATOM
      1 C10          8.1690     0.5010    18.8680 cx         1 ZGO      -0.074000
      2 C11          7.6750     1.9430    18.9850 c3         1 ZGO      -0.066100
      3 C12          7.3460    -0.2340    17.7960 c3         1 ZGO      -0.066100
      4 C13          6.2620    -8.3150    17.7720 c6         1 ZGO       0.185400
      5 C14          4.9060    -7.5690    17.5580 c6         1 ZGO      -0.086400
      6 C15          4.8660    -6.7390    16.2480 c6         1 ZGO      -0.069400
      7 C16          5.1380    -7.6370    15.0200 c6         1 ZGO      -0.075400
      8 C18          6.5110    -9.2040    16.5090 c6         1 ZGO      -0.086400
      9 C20          7.2820   -10.7820    21.2470 c3         1 ZGO      -0.205000
     10 C21          8.3380   -11.8620    21.6220 c3         1 ZGO      -0.085767
     11 C22          5.8550   -11.3670    21.4540 c3         1 ZGO      -0.085767
     12 C23          7.4790    -9.5450    22.1750 c3         1 ZGO      -0.085767
     13 C24         14.4780    -3.4380    17.0370 c5         1 ZGO      -0.095400
     14 C25         14.2300    -4.9060    16.5930 c5         1 ZGO       0.100000
     15 C26         14.0250    -1.1530    15.8080 c3         1 ZGO      -0.069400
     16 C31         13.6570    -2.6590    15.9710 c5         1 ZGO      -0.161700
     17 C32         11.8080    -1.0320    18.4690 c          1 ZGO       0.600100
     18 C33         10.2480    -1.0150    18.4190 c5         1 ZGO       0.062700
     19 C1          13.7370    -0.2570    17.0430 c3         1 ZGO       0.172800
     20 C17          6.4720    -8.4030    15.1780 c6         1 ZGO      -0.069400
     21 C19          6.1600    -9.1940    19.0560 c3         1 ZGO      -0.312400
     22 C2           8.6090    -1.7200    20.1680 c5         1 ZGO       0.133000
     23 C27         13.8840    -3.4950    14.7050 c          1 ZGO       0.565000
     24 C3           8.6630    -0.1870    20.1330 cx         1 ZGO      -0.123700
     25 C4           9.6530     0.2410    19.0830 cx         1 ZGO      -0.131700
     26 C5           9.7090    -3.4600    18.6840 c          1 ZGO       0.581100
     27 C6           9.2530    -4.6590    19.5830 c3         1 ZGO       0.053700
     28 C7          10.3740    -5.1830    20.5650 c3         1 ZGO      -0.039000
     29 C9          14.1550     1.1420    16.8210 c1         1 ZGO       0.283900
     30 N34          8.7480    -5.7320    18.6920 ns         1 ZGO      -0.481900
     31 N35          7.3610    -7.3410    17.8810 ns         1 ZGO      -0.500900
     32 N36         12.3120    -0.3110    17.4070 ns         1 ZGO      -0.495900
     33 N37         14.2290    -4.7460    15.1410 ns         1 ZGO      -0.516900
     34 N38         14.4580     2.2530    16.6380 n1         1 ZGO      -0.446000
     35 N39          9.6440    -2.1430    19.1910 n          1 ZGO      -0.392800
     36 O40         10.1690    -3.6540    17.5610 o          1 ZGO      -0.632100
     37 O41          6.8420    -6.2410    19.8300 o          1 ZGO      -0.673100
     38 O42          8.7870    -9.5580    19.3740 o          1 ZGO      -0.523000
     39 O43          7.3630   -11.5190    18.6560 o          1 ZGO      -0.523000
     40 O44         13.9980    -3.1380    13.5440 o          1 ZGO      -0.552000
     41 O45         12.5200    -1.5670    19.3090 o          1 ZGO      -0.598100
     42 S46          7.5280   -10.3080    19.4700 s6         1 ZGO       1.026000
     43 H1           8.2380     2.5030    19.7420 hc         1 ZGO       0.042533
     44 H2           7.7840     2.4750    18.0330 hc         1 ZGO       0.042533
     45 H3           6.6170     1.9750    19.2720 hc         1 ZGO       0.042533
     46 H4           6.2800    -0.2260    18.0550 hc         1 ZGO       0.042533
     47 H5           7.4530     0.2590    16.8220 hc         1 ZGO       0.042533
     48 H6           7.6300    -1.2810    17.6560 hc         1 ZGO       0.042533
     49 H7           4.6950    -6.9100    18.4110 hc         1 ZGO       0.056450
     50 H8           4.0850    -8.2990    17.5400 hc         1 ZGO       0.056450
     51 H9           5.6050    -5.9270    16.2900 hc         1 ZGO       0.044950
     52 H10          3.8840    -6.2570    16.1440 hc         1 ZGO       0.044950
     53 H11          5.1620    -7.0270    14.1070 hc         1 ZGO       0.040700
     54 H12          4.3140    -8.3530    14.8960 hc         1 ZGO       0.040700
     55 H13          5.7580   -10.0030    16.4670 hc         1 ZGO       0.056450
     56 H14          7.4840    -9.7080    16.5790 hc         1 ZGO       0.056450
     57 H15          8.2350   -12.1640    22.6710 hc         1 ZGO       0.054033
     58 H16          8.2230   -12.7610    21.0040 hc         1 ZGO       0.054033
     59 H17          9.3580   -11.4830    21.4810 hc         1 ZGO       0.054033
     60 H18          5.7220   -11.7100    22.4880 hc         1 ZGO       0.054033
     61 H19          5.0790   -10.6180    21.2540 hc         1 ZGO       0.054033
     62 H20          5.6780   -12.2260    20.7940 hc         1 ZGO       0.054033
     63 H21          7.3710    -9.8300    23.2280 hc         1 ZGO       0.054033
     64 H22          8.4790    -9.1120    22.0520 hc         1 ZGO       0.054033
     65 H23          6.7430    -8.7590    21.9730 hc         1 ZGO       0.054033
     66 H24         15.5450    -3.1920    16.9790 hc         1 ZGO       0.063700
     67 H25         14.1530    -3.2540    18.0660 hc         1 ZGO       0.063700
     68 H26         13.2610    -5.2770    16.9550 h1         1 ZGO       0.044700
     69 H27         15.0180    -5.5830    16.9490 h1         1 ZGO       0.044700
     70 H28         15.0900    -1.0690    15.5520 hc         1 ZGO       0.069700
     71 H29         13.4770    -0.7430    14.9500 hc         1 ZGO       0.069700
     72 H30         12.4200    -5.9830    20.4580 hc         1 ZGO       0.040700
     73 H31         11.4520    -6.3220    19.0150 hc         1 ZGO       0.040700
     74 H32         12.1070    -4.6940    19.2900 hc         1 ZGO       0.040700
     75 H33         12.5950    -2.7610    16.2190 hc         1 ZGO       0.098700
     76 H34          9.9620    -1.0820    17.3610 h1         1 ZGO       0.085700
     77 H35         14.3380    -0.6300    17.8840 h1         1 ZGO       0.105700
     78 H36          6.6050    -9.0880    14.3300 hc         1 ZGO       0.044950
     79 H37          7.3120    -7.6960    15.1340 hc         1 ZGO       0.044950
     80 H38          6.0100    -8.5530    19.9250 h1         1 ZGO       0.110700
     81 H39          5.2880    -9.8490    18.9690 h1         1 ZGO       0.110700
     82 H40          7.6180    -2.1080    19.8980 h1         1 ZGO       0.066200
     83 H41          8.8420    -2.0970    21.1700 h1         1 ZGO       0.066200
     84 H42          8.9380    -6.2280    21.8650 hc         1 ZGO       0.040700
     85 H43          9.7090    -7.2840    20.6630 hc         1 ZGO       0.040700
     86 H44         10.6150    -6.7600    22.0830 hc         1 ZGO       0.040700
     87 H45          9.8670    -3.8240    22.2160 hc         1 ZGO       0.040700
     88 H46         11.5050    -4.4830    22.3140 hc         1 ZGO       0.040700
     89 H47         11.1510    -3.2030    21.1530 hc         1 ZGO       0.040700
     90 H48          8.6170     0.3690    21.0680 hc         1 ZGO       0.100700
     91 H49         10.2950     1.0960    19.2890 hc         1 ZGO       0.104700
     92 H50          8.4110    -4.3070    20.1890 h1         1 ZGO       0.087700
     93 H51          9.2790    -5.9310    17.8560 hn         1 ZGO       0.316500
     94 H52          8.0660    -7.3770    17.1600 hn         1 ZGO       0.321500
     95 H53         11.6410     0.1290    16.7880 hn         1 ZGO       0.330500
     96 H54         14.5130    -5.4420    14.4620 hn         1 ZGO       0.327500
     97 C8           7.5880    -6.4330    18.8850 c          1 ZGO       0.647100
     98 C30         11.6630    -5.5670    19.7830 c3         1 ZGO      -0.090100
     99 C28          9.8770    -6.4380    21.3380 c3         1 ZGO      -0.090100
    100 C29         10.7430    -4.1060    21.6210 c3         1 ZGO      -0.090100
@<TRIPOS>BOND
     1     1     2 1   
     2     1     3 1   
     3     1    24 1   
     4     1    25 1   
     5     2    43 1   
     6     2    44 1   
     7     2    45 1   
     8     3    46 1   
     9     3    47 1   
    10     3    48 1   
    11     4     5 1   
    12     4     8 1   
    13     4    21 1   
    14     4    31 1   
    15     5     6 1   
    16     5    49 1   
    17     5    50 1   
    18     6     7 1   
    19     6    51 1   
    20     6    52 1   
    21     7    20 1   
    22     7    53 1   
    23     7    54 1   
    24     8    20 1   
    25     8    55 1   
    26     8    56 1   
    27     9    10 1   
    28     9    11 1   
    29     9    12 1   
    30     9    42 1   
    31    10    57 1   
    32    10    58 1   
    33    10    59 1   
    34    11    60 1   
    35    11    61 1   
    36    11    62 1   
    37    12    63 1   
    38    12    64 1   
    39    12    65 1   
    40    13    14 1   
    41    13    16 1   
    42    13    66 1   
    43    13    67 1   
    44    14    33 1   
    45    14    68 1   
    46    14    69 1   
    47    15    16 1   
    48    15    19 1   
    49    15    70 1   
    50    15    71 1   
    51    16    23 1   
    52    16    75 1   
    53    17    18 1   
    54    17    32 1   
    55    17    41 2   
    56    18    25 1   
    57    18    35 1   
    58    18    76 1   
    59    19    29 1   
    60    19    32 1   
    61    19    77 1   
    62    20    78 1   
    63    20    79 1   
    64    21    42 1   
    65    21    80 1   
    66    21    81 1   
    67    22    24 1   
    68    22    35 1   
    69    22    82 1   
    70    22    83 1   
    71    23    33 1   
    72    23    40 2   
    73    24    25 1   
    74    24    90 1   
    75    25    91 1   
    76    26    27 1   
    77    26    35 1   
    78    26    36 2   
    79    27    28 1   
    80    27    30 1   
    81    27    92 1   
    82    28    98 1   
    83    28    99 1   
    84    28   100 1   
    85    29    34 3   
    86    30    93 1   
    87    30    97 1   
    88    31    94 1   
    89    31    97 1   
    90    32    95 1   
    91    33    96 1   
    92    37    97 2   
    93    38    42 2   
    94    39    42 2   
    95    72    98 1   
    96    73    98 1   
    97    74    98 1   
    98    84    99 1   
    99    85    99 1   
   100    86    99 1   
   101    87   100 1   
   102    88   100 1   
   103    89   100 1   
@<TRIPOS>SUBSTRUCTURE
     1 ZGO         1 TEMP              0 ****  ****    0 ROOT
