@<TRIPOS>MOLECULE
ZGO
  100   103     1     0     0
SMALL
abcg2


@<TRIPOS>ATOM
      1 C10          7.3570    -1.0880    19.3050 cx         1 ZGO      -0.074000
      2 C11          6.4440     0.0770    19.6150 c3         1 ZGO      -0.066100
      3 C12          6.6370    -2.2290    18.6240 c3         1 ZGO      -0.066100
      4 C13          6.2740    -7.6480    17.7760 c6         1 ZGO       0.185400
      5 C14          5.3640    -6.4350    17.4930 c6         1 ZGO      -0.086400
      6 C15          5.6720    -5.7750    16.1560 c6         1 ZGO      -0.069400
      7 C16          5.5250    -6.7730    15.0150 c6         1 ZGO      -0.075400
      8 C18          6.1280    -8.6400    16.6120 c6         1 ZGO      -0.086400
      9 C20          6.2490    -9.9420    21.4060 c3         1 ZGO      -0.205000
     10 C21          6.7720   -11.3210    21.8060 c3         1 ZGO      -0.085767
     11 C22          4.7510    -9.8390    21.6640 c3         1 ZGO      -0.085767
     12 C23          7.0200    -8.8500    22.1380 c3         1 ZGO      -0.085767
     13 C24         14.8030    -2.3090    17.6770 c5         1 ZGO      -0.095400
     14 C25         15.5510    -3.6330    17.8560 c5         1 ZGO       0.100000
     15 C26         13.5510    -1.3540    15.6320 c3         1 ZGO      -0.069400
     16 C31         13.8800    -2.5660    16.4860 c5         1 ZGO      -0.161700
     17 C32         11.0250    -1.1050    18.0110 c          1 ZGO       0.600100
     18 C33          9.6180    -1.6770    18.1720 c5         1 ZGO       0.062700
     19 C1          12.6960    -0.3310    16.3920 c3         1 ZGO       0.172800
     20 C17          6.3930    -8.0020    15.2490 c6         1 ZGO      -0.069400
     21 C19          5.7770    -8.2520    19.1060 c3         1 ZGO      -0.312400
     22 C2           9.1420    -2.6590    20.3540 c5         1 ZGO       0.133000
     23 C27         14.6140    -3.6440    15.6980 c          1 ZGO       0.565000
     24 C3           8.4690    -1.3120    20.2920 cx         1 ZGO      -0.123700
     25 C4           8.7660    -0.7020    18.9520 cx         1 ZGO      -0.131700
     26 C5          10.1920    -3.9980    18.4940 c          1 ZGO       0.581100
     27 C6          10.2650    -5.2470    19.3720 c3         1 ZGO       0.053700
     28 C7          11.7200    -5.6320    19.7510 c3         1 ZGO      -0.039000
     29 C9          12.5380     0.8900    15.5890 c1         1 ZGO       0.283900
     30 N34          9.5810    -6.3260    18.6980 ns         1 ZGO      -0.481900
     31 N35          7.6750    -7.2590    17.8330 ns         1 ZGO      -0.500900
     32 N36         11.3930    -0.8370    16.7420 ns         1 ZGO      -0.495900
     33 N37         15.5320    -4.1830    16.5170 ns         1 ZGO      -0.516900
     34 N38         12.4150     1.8380    14.9520 n1         1 ZGO      -0.446000
     35 N39          9.6700    -2.8690    19.0060 n          1 ZGO      -0.392800
     36 O40         10.5820    -4.0380    17.3310 o          1 ZGO      -0.632100
     37 O41          7.5490    -5.7450    19.5310 o          1 ZGO      -0.673100
     38 O42          8.0070    -9.7090    19.4020 o          1 ZGO      -0.523000
     39 O43          5.8570   -10.9040    18.9340 o          1 ZGO      -0.523000
     40 O44         14.3930    -3.9670    14.5440 o          1 ZGO      -0.552000
     41 O45         11.7270    -0.8880    18.9820 o          1 ZGO      -0.598100
     42 S46          6.5570    -9.8000    19.6030 s6         1 ZGO       1.026000
     43 H1           6.9780     0.8900    20.1080 hc         1 ZGO       0.042533
     44 H2           6.0010     0.4760    18.7010 hc         1 ZGO       0.042533
     45 H3           5.6290    -0.2340    20.2710 hc         1 ZGO       0.042533
     46 H4           5.7960    -2.5580    19.2390 hc         1 ZGO       0.042533
     47 H5           6.2290    -1.8990    17.6670 hc         1 ZGO       0.042533
     48 H6           7.2570    -3.1020    18.4340 hc         1 ZGO       0.042533
     49 H7           5.4350    -5.7160    18.3070 hc         1 ZGO       0.056450
     50 H8           4.3310    -6.7970    17.4790 hc         1 ZGO       0.056450
     51 H9           6.6870    -5.3660    16.1660 hc         1 ZGO       0.044950
     52 H10          4.9980    -4.9280    16.0120 hc         1 ZGO       0.044950
     53 H11          5.7830    -6.3080    14.0610 hc         1 ZGO       0.040700
     54 H12          4.4760    -7.0790    14.9390 hc         1 ZGO       0.040700
     55 H13          5.1090    -9.0350    16.6350 hc         1 ZGO       0.056450
     56 H14          6.7960    -9.4930    16.7510 hc         1 ZGO       0.056450
     57 H15          6.6350   -11.4350    22.8820 hc         1 ZGO       0.054033
     58 H16          6.2260   -12.1260    21.3150 hc         1 ZGO       0.054033
     59 H17          7.8340   -11.4340    21.5930 hc         1 ZGO       0.054033
     60 H18          4.5710   -10.0200    22.7240 hc         1 ZGO       0.054033
     61 H19          4.3570    -8.8490    21.4320 hc         1 ZGO       0.054033
     62 H20          4.1880   -10.5820    21.1000 hc         1 ZGO       0.054033
     63 H21          6.8440    -8.9650    23.2080 hc         1 ZGO       0.054033
     64 H22          8.0930    -8.9240    21.9680 hc         1 ZGO       0.054033
     65 H23          6.6940    -7.8460    21.8650 hc         1 ZGO       0.054033
     66 H24         15.5140    -1.5140    17.4330 hc         1 ZGO       0.063700
     67 H25         14.2720    -2.0130    18.5790 hc         1 ZGO       0.063700
     68 H26         15.0420    -4.2940    18.5630 h1         1 ZGO       0.044700
     69 H27         16.5730    -3.4910    18.2070 h1         1 ZGO       0.044700
     70 H28         14.4740    -0.8650    15.3120 hc         1 ZGO       0.069700
     71 H29         13.0170    -1.6620    14.7310 hc         1 ZGO       0.069700
     72 H30         13.5570    -6.3820    18.9250 hc         1 ZGO       0.040700
     73 H31         12.1480    -7.0260    18.1090 hc         1 ZGO       0.040700
     74 H32         12.6710    -5.3690    17.7940 hc         1 ZGO       0.040700
     75 H33         12.9500    -3.0340    16.8310 hc         1 ZGO       0.098700
     76 H34          9.1810    -1.9190    17.1990 h1         1 ZGO       0.085700
     77 H35         13.2000    -0.0350    17.3140 h1         1 ZGO       0.105700
     78 H36          6.2100    -8.7490    14.4740 hc         1 ZGO       0.044950
     79 H37          7.4480    -7.7280    15.1590 hc         1 ZGO       0.044950
     80 H38          5.9260    -7.5310    19.9090 h1         1 ZGO       0.110700
     81 H39          4.7100    -8.4680    19.0390 h1         1 ZGO       0.110700
     82 H40          8.4510    -3.4600    20.6190 h1         1 ZGO       0.066200
     83 H41          9.9440    -2.6390    21.0950 h1         1 ZGO       0.066200
     84 H42         11.1010    -6.4160    21.6890 hc         1 ZGO       0.040700
     85 H43         11.1620    -7.6380    20.4170 hc         1 ZGO       0.040700
     86 H44         12.6550    -7.0220    21.1210 hc         1 ZGO       0.040700
     87 H45         11.8390    -4.0150    21.2120 hc         1 ZGO       0.040700
     88 H46         13.3940    -4.6910    20.7400 hc         1 ZGO       0.040700
     89 H47         12.5500    -3.6080    19.6450 hc         1 ZGO       0.040700
     90 H48          8.4910    -0.7130    21.1940 hc         1 ZGO       0.100700
     91 H49          8.9980     0.3520    18.8500 hc         1 ZGO       0.104700
     92 H50          9.7490    -5.0760    20.3150 h1         1 ZGO       0.087700
     93 H51         10.0400    -6.6890    17.8760 hn         1 ZGO       0.316500
     94 H52          8.3130    -7.8820    17.3640 hn         1 ZGO       0.321500
     95 H53         10.7960    -1.1450    15.9890 hn         1 ZGO       0.330500
     96 H54         16.0720    -4.9930    16.2550 hn         1 ZGO       0.327500
     97 C8           8.2140    -6.4020    18.7360 c          1 ZGO       0.647100
     98 C30         12.5570    -6.1240    18.5700 c3         1 ZGO      -0.090100
     99 C28         11.6500    -6.7420    20.8030 c3         1 ZGO      -0.090100
    100 C29         12.4060    -4.4120    20.3680 c3         1 ZGO      -0.090100
@<TRIPOS>BOND
     1     1     2 1   
     2     1     3 1   
     3     1    24 1   
     4     1    25 1   
     5     2    43 1   
     6     2    44 1   
     7     2    45 1   
     8     3    46 1   
     9     3    47 1   
    10     3    48 1   
    11     4     5 1   
    12     4     8 1   
    13     4    21 1   
    14     4    31 1   
    15     5     6 1   
    16     5    49 1   
    17     5    50 1   
    18     6     7 1   
    19     6    51 1   
    20     6    52 1   
    21     7    20 1   
    22     7    53 1   
    23     7    54 1   
    24     8    20 1   
    25     8    55 1   
    26     8    56 1   
    27     9    10 1   
    28     9    11 1   
    29     9    12 1   
    30     9    42 1   
    31    10    57 1   
    32    10    58 1   
    33    10    59 1   
    34    11    60 1   
    35    11    61 1   
    36    11    62 1   
    37    12    63 1   
    38    12    64 1   
    39    12    65 1   
    40    13    14 1   
    41    13    16 1   
    42    13    66 1   
    43    13    67 1   
    44    14    33 1   
    45    14    68 1   
    46    14    69 1   
    47    15    16 1   
    48    15    19 1   
    49    15    70 1   
    50    15    71 1   
    51    16    23 1   
    52    16    75 1   
    53    17    18 1   
    54    17    32 1   
    55    17    41 2   
    56    18    25 1   
    57    18    35 1   
    58    18    76 1   
    59    19    29 1   
    60    19    32 1   
    61    19    77 1   
    62    20    78 1   
    63    20    79 1   
    64    21    42 1   
    65    21    80 1   
    66    21    81 1   
    67    22    24 1   
    68    22    35 1   
    69    22    82 1   
    70    22    83 1   
    71    23    33 1   
    72    23    40 2   
    73    24    25 1   
    74    24    90 1   
    75    25    91 1   
    76    26    27 1   
    77    26    35 1   
    78    26    36 2   
    79    27    28 1   
    80    27    30 1   
    81    27    92 1   
    82    28    98 1   
    83    28    99 1   
    84    28   100 1   
    85    29    34 3   
    86    30    93 1   
    87    30    97 1   
    88    31    94 1   
    89    31    97 1   
    90    32    95 1   
    91    33    96 1   
    92    37    97 2   
    93    38    42 2   
    94    39    42 2   
    95    72    98 1   
    96    73    98 1   
    97    74    98 1   
    98    84    99 1   
    99    85    99 1   
   100    86    99 1   
   101    87   100 1   
   102    88   100 1   
   103    89   100 1   
@<TRIPOS>SUBSTRUCTURE
     1 ZGO         1 TEMP              0 ****  ****    0 ROOT
