@<TRIPOS>MOLECULE
ZGP
   59    62     1     0     0
SMALL
bcc


@<TRIPOS>ATOM
      1 O6          -3.4150    -4.3070    -0.2050 o          1 ZGP      -0.611500
      2 C6          -3.6210    -3.1320    -0.4650 c          1 ZGP       0.662000
      3 N1          -4.5590    -2.7740    -1.4410 ns         1 ZGP      -0.525400
      4 C2          -4.8760    -1.5030    -1.8260 cc         1 ZGP       0.706800
      5 N2          -5.8310    -1.3710    -2.7630 nv         1 ZGP      -0.937800
      6 N3          -4.3230    -0.4400    -1.3000 nd         1 ZGP      -0.684100
      7 C4          -3.4200    -0.7290    -0.3520 cd         1 ZGP       0.113800
      8 C5          -3.0210    -1.9720     0.1030 cc         1 ZGP       0.163800
      9 N7          -2.0600    -1.8470     1.0730 nc         1 ZGP      -0.614000
     10 C8          -1.8840    -0.5680     1.2060 cd         1 ZGP       0.438400
     11 N9          -2.6860     0.1660     0.3630 na         1 ZGP      -0.200900
     12 C1          -2.7810     1.6010     0.2740 c5         1 ZGP       0.268800
     13 O4          -1.4970     2.1530     0.2280 os         1 ZGP      -0.374600
     14 C7          -3.4650     2.2540     1.4720 c5         1 ZGP       0.048100
     15 O2          -4.8510     2.1740     1.3340 oh         1 ZGP      -0.578800
     16 C3          -2.8830     3.6680     1.3950 c5         1 ZGP       0.081100
     17 O3          -3.5050     4.4100     0.3770 oh         1 ZGP      -0.589800
     18 C9          -1.4460     3.3680     0.9820 c5         1 ZGP       0.113100
     19 C10         -0.5380     3.2230     2.1900 c3         1 ZGP       0.197400
     20 O5           0.7980     2.9770     1.8120 os         1 ZGP      -0.567200
     21 PBK          1.5220     1.5200     1.9340 p5         1 ZGP       1.410800
     22 OAJ          0.7140     0.6190     2.8160 o          1 ZGP      -0.801500
     23 OAG          2.9740     1.7630     2.1600 o          1 ZGP      -0.801500
     24 OAT          1.3350     0.9800     0.3620 os         1 ZGP      -0.485500
     25 CBA          2.3770     0.5360    -0.3700 ca         1 ZGP       0.299100
     26 CAX          2.5940    -0.8450    -0.4770 ca         1 ZGP      -0.239600
     27 CAA          1.7290    -1.8440     0.2360 c3         1 ZGP      -0.037800
     28 CAY          3.1750     1.4450    -1.0580 ca         1 ZGP      -0.298600
     29 CAB          2.9570     2.9270    -1.0040 c3         1 ZGP      -0.034800
     30 CBB          4.2080     0.8950    -1.8230 ca         1 ZGP       0.657600
     31 OAE          5.0660     1.6640    -2.5170 oh         1 ZGP      -0.624300
     32 NAR          4.4340    -0.3950    -1.9450 nb         1 ZGP      -0.734000
     33 CAZ          3.6430    -1.2440    -1.2950 ca         1 ZGP       0.445600
     34 CAM          3.9400    -2.7020    -1.4950 c3         1 ZGP      -0.207700
     35 CAV          4.6600    -3.3180    -0.3180 c          1 ZGP       0.648700
     36 OAD          5.3220    -2.7020     0.4700 o          1 ZGP      -0.472100
     37 SAK          4.4510    -5.0840    -0.2510 sh         1 ZGP      -0.447400
     38 H1          -5.0430    -3.5430    -1.8860 hn         1 ZGP       0.310500
     39 H2          -6.0770    -2.1510    -3.3500 hn         1 ZGP       0.432800
     40 H3          -5.9370    -0.4620    -3.1790 hn         1 ZGP       0.432800
     41 H4          -1.1670    -0.1010     1.8690 h5         1 ZGP       0.124100
     42 H5          -3.3480     1.8130    -0.6400 h2         1 ZGP       0.100700
     43 H6          -3.1190     1.7740     2.3980 h1         1 ZGP       0.070700
     44 H7          -5.2580     2.3300     2.1920 ho         1 ZGP       0.406000
     45 H8          -2.9310     4.1890     2.3610 h1         1 ZGP       0.051700
     46 H9          -4.4580     4.2960     0.4670 ho         1 ZGP       0.412000
     47 H10         -1.0540     4.1600     0.3360 h1         1 ZGP       0.095700
     48 H11         -0.5560     4.1680     2.7390 h1         1 ZGP       0.035200
     49 H12         -0.9120     2.4470     2.8650 h1         1 ZGP       0.035200
     50 H15          1.1430    -2.4400    -0.4670 hc         1 ZGP       0.048367
     51 H16          2.3180    -2.5390     0.8360 hc         1 ZGP       0.048367
     52 H17          1.0270    -1.3620     0.9100 hc         1 ZGP       0.048367
     53 H18          3.7110     3.4240    -0.3900 hc         1 ZGP       0.042367
     54 H19          2.9900     3.3740    -2.0000 hc         1 ZGP       0.042367
     55 H20          1.9860     3.1750    -0.5850 hc         1 ZGP       0.042367
     56 H21          3.0380    -3.2750    -1.7260 hc         1 ZGP       0.083700
     57 H22          4.6060    -2.8180    -2.3560 hc         1 ZGP       0.083700
     58 H23          5.2660    -5.3020     0.7890 hs         1 ZGP       0.235800
     59 H14          4.8850     2.6010    -2.3810 ho         1 ZGP       0.428000
@<TRIPOS>BOND
     1     1     2 2   
     2     2     3 1   
     3     2     8 1   
     4     3     4 1   
     5     3    38 1   
     6     4     5 1   
     7     4     6 2   
     8     5    39 1   
     9     5    40 1   
    10     6     7 1   
    11     7     8 2   
    12     7    11 1   
    13     8     9 1   
    14     9    10 2   
    15    10    11 1   
    16    10    41 1   
    17    11    12 1   
    18    12    13 1   
    19    12    14 1   
    20    12    42 1   
    21    13    18 1   
    22    14    15 1   
    23    14    16 1   
    24    14    43 1   
    25    15    44 1   
    26    16    17 1   
    27    16    18 1   
    28    16    45 1   
    29    17    46 1   
    30    18    19 1   
    31    18    47 1   
    32    19    20 1   
    33    19    48 1   
    34    19    49 1   
    35    20    21 1   
    36    21    22 1   
    37    21    23 1   
    38    21    24 1   
    39    24    25 1   
    40    25    26 ar  
    41    25    28 ar  
    42    26    27 1   
    43    26    33 ar  
    44    27    50 1   
    45    27    51 1   
    46    27    52 1   
    47    28    29 1   
    48    28    30 ar  
    49    29    53 1   
    50    29    54 1   
    51    29    55 1   
    52    30    31 1   
    53    30    32 ar  
    54    31    59 1   
    55    32    33 ar  
    56    33    34 1   
    57    34    35 1   
    58    34    56 1   
    59    34    57 1   
    60    35    36 2   
    61    35    37 1   
    62    37    58 1   
@<TRIPOS>SUBSTRUCTURE
     1 ZGP         1 TEMP              0 ****  ****    0 ROOT
