@<TRIPOS>MOLECULE
ZGP
   59    62     1     0     0
SMALL
No Charge or Current Charge


@<TRIPOS>ATOM
      1 O6          -6.1820    -3.8630     1.5730 o          1 ZGP      -0.536000
      2 C6          -6.0180    -2.7700     1.0470 c          1 ZGP       0.519500
      3 N1          -7.0630    -1.9990     0.6440 ns         1 ZGP      -0.458400
      4 C2          -6.9220    -0.7880     0.0620 cc         1 ZGP       0.706800
      5 N2          -8.0440    -0.1790    -0.2760 nv         1 ZGP      -1.048200
      6 N3          -5.8010    -0.1550    -0.2060 nd         1 ZGP      -0.684100
      7 C4          -4.6700    -0.8830     0.1780 cd         1 ZGP       0.128400
      8 C5          -4.7150    -2.1170     0.7680 cc         1 ZGP       0.098500
      9 N7          -3.4450    -2.5810     1.0210 nc         1 ZGP      -0.614000
     10 C8          -2.6230    -1.6210     0.5820 cd         1 ZGP       0.438400
     11 N9          -3.3410    -0.5490     0.0560 na         1 ZGP      -0.179500
     12 C1          -2.7980     0.6690    -0.5360 c5         1 ZGP       0.321300
     13 O4          -1.3680     0.7570    -0.3210 os         1 ZGP      -0.421000
     14 C7          -3.3890     2.0050     0.0210 c5         1 ZGP       0.071300
     15 O2          -4.6480     2.3720    -0.5710 oh         1 ZGP      -0.701000
     16 C3          -2.2410     2.9820    -0.3450 c5         1 ZGP       0.104300
     17 O3          -2.2540     3.2870    -1.7460 oh         1 ZGP      -0.712000
     18 C9          -1.0150     2.1090     0.0910 c5         1 ZGP       0.136300
     19 C10         -0.7530     2.1500     1.6330 c3         1 ZGP       0.220600
     20 O5           0.6320     1.9120     1.9540 os         1 ZGP      -0.590400
     21 PBK          1.3510     0.4900     1.6910 p5         1 ZGP       1.410800
     22 OAJ          0.4050    -0.6410     1.9170 o          1 ZGP      -0.801500
     23 OAG          2.5680     0.3640     2.5460 o          1 ZGP      -0.801500
     24 OAT          1.7340     0.6780     0.1390 os         1 ZGP      -0.485500
     25 CBA          3.0310     0.7430    -0.2830 ca         1 ZGP       0.299100
     26 CAX          3.6670    -0.4260    -0.7480 ca         1 ZGP      -0.174300
     27 CAA          2.9090    -1.7610    -0.7950 c3         1 ZGP      -0.037800
     28 CAY          3.7240     1.9690    -0.2820 ca         1 ZGP      -0.233300
     29 CAB          3.0480     3.2700     0.1700 c3         1 ZGP      -0.034800
     30 CBB          5.0620     1.9410    -0.7070 ca         1 ZGP       0.592300
     31 OAE          5.8280     3.0530    -0.7130 oh         1 ZGP      -0.663300
     32 NAR          5.6940     0.8430    -1.1230 nb         1 ZGP      -0.734000
     33 CAZ          5.0200    -0.3210    -1.1460 ca         1 ZGP       0.380300
     34 CAM          5.8350    -1.5030    -1.6370 c3         1 ZGP      -0.207700
     35 CAV          6.1200    -2.4440    -0.4790 c          1 ZGP       0.648700
     36 OAD          6.8730    -2.1630     0.4400 o          1 ZGP      -0.472100
     37 SAK          5.6640    -4.1610    -0.8050 sh         1 ZGP      -0.447400
     38 H1          -7.9870    -2.3600     0.8160 hn         1 ZGP       0.310500
     39 H2          -8.8420    -0.7670    -0.4770 hn         1 ZGP       0.488000
     40 H3          -7.9220     0.6140    -0.8940 hn         1 ZGP       0.488000
     41 H4          -1.5390    -1.6390     0.6010 h5         1 ZGP       0.124100
     42 H5          -2.9910     0.5970    -1.6130 h2         1 ZGP       0.100700
     43 H6          -3.4990     1.9350     1.1130 h1         1 ZGP       0.070700
     44 H7          -5.2290     1.5640    -0.4740 ho         1 ZGP       0.505000
     45 H8          -2.3050     3.9090     0.2430 h1         1 ZGP       0.051700
     46 H9          -3.2140     3.3440    -1.9760 ho         1 ZGP       0.511000
     47 H10         -0.1080     2.4320    -0.4350 h1         1 ZGP       0.095700
     48 H11         -1.0340     3.1430     2.0060 h1         1 ZGP       0.035200
     49 H12         -1.4010     1.4210     2.1380 h1         1 ZGP       0.035200
     50 H15          3.1700    -2.3540    -1.6780 hc         1 ZGP       0.048367
     51 H16          3.1220    -2.3650     0.0940 hc         1 ZGP       0.048367
     52 H17          1.8230    -1.6200    -0.8420 hc         1 ZGP       0.048367
     53 H18          3.1550     3.4130     1.2520 hc         1 ZGP       0.042367
     54 H19          3.4640     4.1530    -0.3290 hc         1 ZGP       0.042367
     55 H20          1.9780     3.2710    -0.0620 hc         1 ZGP       0.042367
     56 H21          5.2950    -2.0270    -2.4320 hc         1 ZGP       0.083700
     57 H22          6.7960    -1.1620    -2.0370 hc         1 ZGP       0.083700
     58 H23          6.4640    -4.6080     0.1900 hs         1 ZGP       0.235800
     59 H14          5.2740     3.7620    -0.3340 ho         1 ZGP       0.467000
@<TRIPOS>BOND
     1     1     2 2   
     2     2     3 1   
     3     2     8 1   
     4     3     4 1   
     5     3    38 1   
     6     4     5 1   
     7     4     6 2   
     8     5    39 1   
     9     5    40 1   
    10     6     7 1   
    11     7     8 2   
    12     7    11 1   
    13     8     9 1   
    14     9    10 2   
    15    10    11 1   
    16    10    41 1   
    17    11    12 1   
    18    12    13 1   
    19    12    14 1   
    20    12    42 1   
    21    13    18 1   
    22    14    15 1   
    23    14    16 1   
    24    14    43 1   
    25    15    44 1   
    26    16    17 1   
    27    16    18 1   
    28    16    45 1   
    29    17    46 1   
    30    18    19 1   
    31    18    47 1   
    32    19    20 1   
    33    19    48 1   
    34    19    49 1   
    35    20    21 1   
    36    21    22 1   
    37    21    23 1   
    38    21    24 1   
    39    24    25 1   
    40    25    26 ar  
    41    25    28 ar  
    42    26    27 1   
    43    26    33 ar  
    44    27    50 1   
    45    27    51 1   
    46    27    52 1   
    47    28    29 1   
    48    28    30 ar  
    49    29    53 1   
    50    29    54 1   
    51    29    55 1   
    52    30    31 1   
    53    30    32 ar  
    54    31    59 1   
    55    32    33 ar  
    56    33    34 1   
    57    34    35 1   
    58    34    56 1   
    59    34    57 1   
    60    35    36 2   
    61    35    37 1   
    62    37    58 1   
@<TRIPOS>SUBSTRUCTURE
     1 ZGP         1 TEMP              0 ****  ****    0 ROOT
