@<TRIPOS>MOLECULE
ZGR
   47    47     1     0     0
SMALL
abcg2


@<TRIPOS>ATOM
      1 C1           4.9710    -0.4510    -0.1220 ca         1 ZGR      -0.287600
      2 C2           6.1300     0.3630    -0.0610 ca         1 ZGR       0.248100
      3 C3           6.0300     1.7520     0.0090 ca         1 ZGR      -0.250000
      4 O2           7.3400    -0.1790    -0.0770 oh         1 ZGR      -0.645100
      5 C4           4.7800     2.3480     0.0350 ca         1 ZGR       0.160100
      6 O4           4.7290     3.6910     0.1130 oh         1 ZGR      -0.554100
      7 C5           3.6270     1.5670    -0.0000 ca         1 ZGR      -0.292000
      8 C6           3.7130     0.1790    -0.0860 ca         1 ZGR       0.048200
      9 O6P         -3.4710     1.1920     0.6110 o          1 ZGR      -0.522100
     10 C6P         -3.6020     0.1440     0.0180 c          1 ZGR       0.569100
     11 C7P         -4.9530    -0.4160    -0.3460 c3         1 ZGR      -0.186400
     12 C8P         -6.1410     0.2400     0.3380 c3         1 ZGR      -0.060400
     13 C9P         -7.4530    -0.3910    -0.1130 c3         1 ZGR      -0.071400
     14 C10         -8.6850     0.1660     0.5830 c3         1 ZGR       0.172300
     15 O10         -8.7710     1.5460     0.2730 oh         1 ZGR      -0.658000
     16 C11         -9.9460    -0.5770     0.1640 c3         1 ZGR      -0.129100
     17 C5P         -2.4210    -0.6920    -0.4080 c3         1 ZGR      -0.179400
     18 C4P         -1.0760     0.0140    -0.3590 c3         1 ZGR      -0.065400
     19 C3P          0.0610    -0.9110    -0.7960 c3         1 ZGR      -0.029200
     20 C2P          1.3810    -0.2110    -0.8190 c2         1 ZGR      -0.272200
     21 C1P          2.4410    -0.5700    -0.0950 ce         1 ZGR      -0.087200
     22 C12          5.1480    -1.9370    -0.2760 c          1 ZGR       0.725600
     23 O13          6.3530    -2.3590    -0.2170 o          1 ZGR      -0.689500
     24 O12          4.1750    -2.6720    -0.4600 o          1 ZGR      -0.689500
     25 H1           6.9280     2.3570     0.0520 ha         1 ZGR       0.119000
     26 H2           7.1370    -1.2030    -0.1260 ho         1 ZGR       0.553000
     27 H3           3.8120     3.9890     0.1290 ho         1 ZGR       0.448000
     28 H4           2.6530     2.0380     0.0720 ha         1 ZGR       0.094000
     29 H5          -5.0410    -0.3250    -1.4360 hc         1 ZGR       0.055700
     30 H6          -4.9420    -1.4960    -0.1610 hc         1 ZGR       0.055700
     31 H7          -6.0430     0.1380     1.4230 hc         1 ZGR       0.057700
     32 H8          -6.1470     1.3100     0.1260 hc         1 ZGR       0.057700
     33 H9          -7.5690    -0.2770    -1.1970 hc         1 ZGR       0.041700
     34 H10         -7.4200    -1.4680     0.0760 hc         1 ZGR       0.041700
     35 H11         -8.5510     0.0300     1.6670 h1         1 ZGR       0.026700
     36 H12         -9.5310     1.9110     0.7370 ho         1 ZGR       0.436000
     37 H13        -10.1040    -0.5050    -0.9140 hc         1 ZGR       0.038033
     38 H14         -9.8770    -1.6340     0.4250 hc         1 ZGR       0.038033
     39 H15        -10.8280    -0.1730     0.6640 hc         1 ZGR       0.038033
     40 H16         -2.4140    -1.5730     0.2460 hc         1 ZGR       0.055700
     41 H17         -2.6180    -1.0890    -1.4090 hc         1 ZGR       0.055700
     42 H18         -1.0980     0.8930    -1.0100 hc         1 ZGR       0.049700
     43 H19         -0.8760     0.3790     0.6500 hc         1 ZGR       0.049700
     44 H20          0.1090    -1.7790    -0.1310 hc         1 ZGR       0.037200
     45 H21         -0.1660    -1.2970    -1.7960 hc         1 ZGR       0.037200
     46 H22          1.4580     0.6430    -1.4890 ha         1 ZGR       0.160000
     47 H23          2.3720    -1.4440     0.5400 ha         1 ZGR       0.196000
@<TRIPOS>BOND
     1     1     2 ar  
     2     1     8 ar  
     3     1    22 1   
     4     2     3 ar  
     5     2     4 1   
     6     3     5 ar  
     7     3    25 1   
     8     4    26 1   
     9     5     6 1   
    10     5     7 ar  
    11     6    27 1   
    12     7     8 ar  
    13     7    28 1   
    14     8    21 1   
    15     9    10 2   
    16    10    11 1   
    17    10    17 1   
    18    11    12 1   
    19    11    29 1   
    20    11    30 1   
    21    12    13 1   
    22    12    31 1   
    23    12    32 1   
    24    13    14 1   
    25    13    33 1   
    26    13    34 1   
    27    14    15 1   
    28    14    16 1   
    29    14    35 1   
    30    15    36 1   
    31    16    37 1   
    32    16    38 1   
    33    16    39 1   
    34    17    18 1   
    35    17    40 1   
    36    17    41 1   
    37    18    19 1   
    38    18    42 1   
    39    18    43 1   
    40    19    20 1   
    41    19    44 1   
    42    19    45 1   
    43    20    21 2   
    44    20    46 1   
    45    21    47 1   
    46    22    23 1   
    47    22    24 1   
@<TRIPOS>SUBSTRUCTURE
     1 ZGR         1 TEMP              0 ****  ****    0 ROOT
