@<TRIPOS>MOLECULE
ZGR
   47    47     1     0     0
SMALL
No Charge or Current Charge


@<TRIPOS>ATOM
      1 C1           4.6630    -0.2260    -0.0520 ca         1 ZGR      -0.287600
      2 C2           5.7960     0.5690    -0.3280 ca         1 ZGR       0.248100
      3 C3           5.6890     1.7540    -1.0600 ca         1 ZGR      -0.250000
      4 O2           7.0190     0.1990     0.1310 oh         1 ZGR      -0.645100
      5 C4           4.4420     2.1750    -1.5160 ca         1 ZGR       0.160100
      6 O4           4.3330     3.3320    -2.2190 oh         1 ZGR      -0.554100
      7 C5           3.3000     1.4200    -1.2350 ca         1 ZGR      -0.292000
      8 C6           3.3890     0.2160    -0.5050 ca         1 ZGR       0.048200
      9 O6P         -3.2750    -0.3920     2.7110 o          1 ZGR      -0.522100
     10 C6P         -3.4010    -0.3930     1.4930 c          1 ZGR       0.569100
     11 C7P         -4.4700     0.4600     0.7960 c3         1 ZGR      -0.186400
     12 C8P         -5.8290    -0.2770     0.7420 c3         1 ZGR      -0.060400
     13 C9P         -6.9340     0.5460     0.0370 c3         1 ZGR      -0.071400
     14 C10         -8.2950    -0.1860    -0.0740 c3         1 ZGR       0.172300
     15 O10         -8.8250    -0.4260     1.2320 oh         1 ZGR      -0.658000
     16 C11         -9.3300     0.6210    -0.8810 c3         1 ZGR      -0.129100
     17 C5P         -2.4970    -1.2460     0.5920 c3         1 ZGR      -0.179400
     18 C4P         -1.1800    -0.5070     0.2570 c3         1 ZGR      -0.065400
     19 C3P         -0.2450    -1.3220    -0.6600 c3         1 ZGR      -0.029200
     20 C2P          1.0330    -0.5750    -0.9790 c2         1 ZGR      -0.272200
     21 C1P          2.1300    -0.5260    -0.1880 ce         1 ZGR      -0.087200
     22 C12          4.8440    -1.5270     0.6910 c          1 ZGR       0.725600
     23 O13          5.7380    -1.5730     1.5260 o          1 ZGR      -0.689500
     24 O12          4.2120    -2.5070     0.3330 o          1 ZGR      -0.689500
     25 H1           6.5740     2.3490    -1.2640 ha         1 ZGR       0.119000
     26 H2           6.8210    -0.5390     0.7740 ho         1 ZGR       0.553000
     27 H3           3.3870     3.4580    -2.4420 ho         1 ZGR       0.448000
     28 H4           2.3310     1.7790    -1.5700 ha         1 ZGR       0.094000
     29 H5          -4.5970     1.4020     1.3430 hc         1 ZGR       0.055700
     30 H6          -4.1610     0.6560    -0.2380 hc         1 ZGR       0.055700
     31 H7          -5.7040    -1.2330     0.2170 hc         1 ZGR       0.057700
     32 H8          -6.1480    -0.5150     1.7650 hc         1 ZGR       0.057700
     33 H9          -7.0750     1.4950     0.5690 hc         1 ZGR       0.041700
     34 H10         -6.5910     0.8000    -0.9740 hc         1 ZGR       0.041700
     35 H11         -8.1310    -1.1420    -0.5910 h1         1 ZGR       0.026700
     36 H12         -9.6690    -0.9130     1.1120 ho         1 ZGR       0.436000
     37 H13         -9.5320     1.5880    -0.4050 hc         1 ZGR       0.038033
     38 H14         -8.9620     0.8090    -1.8970 hc         1 ZGR       0.038033
     39 H15        -10.2760     0.0710    -0.9610 hc         1 ZGR       0.038033
     40 H16         -2.2580    -2.1860     1.1030 hc         1 ZGR       0.055700
     41 H17         -3.0120    -1.4440    -0.3560 hc         1 ZGR       0.055700
     42 H18         -1.4130     0.4490    -0.2280 hc         1 ZGR       0.049700
     43 H19         -0.6510    -0.2700     1.1890 hc         1 ZGR       0.049700
     44 H20         -0.0100    -2.2790    -0.1780 hc         1 ZGR       0.037200
     45 H21         -0.7740    -1.5630    -1.5900 hc         1 ZGR       0.037200
     46 H22          1.0180    -0.0600    -1.9400 ha         1 ZGR       0.160000
     47 H23          2.1330    -1.0600     0.7640 ha         1 ZGR       0.196000
@<TRIPOS>BOND
     1     1     2 ar  
     2     1     8 ar  
     3     1    22 1   
     4     2     3 ar  
     5     2     4 1   
     6     3     5 ar  
     7     3    25 1   
     8     4    26 1   
     9     5     6 1   
    10     5     7 ar  
    11     6    27 1   
    12     7     8 ar  
    13     7    28 1   
    14     8    21 1   
    15     9    10 2   
    16    10    11 1   
    17    10    17 1   
    18    11    12 1   
    19    11    29 1   
    20    11    30 1   
    21    12    13 1   
    22    12    31 1   
    23    12    32 1   
    24    13    14 1   
    25    13    33 1   
    26    13    34 1   
    27    14    15 1   
    28    14    16 1   
    29    14    35 1   
    30    15    36 1   
    31    16    37 1   
    32    16    38 1   
    33    16    39 1   
    34    17    18 1   
    35    17    40 1   
    36    17    41 1   
    37    18    19 1   
    38    18    42 1   
    39    18    43 1   
    40    19    20 1   
    41    19    44 1   
    42    19    45 1   
    43    20    21 2   
    44    20    46 1   
    45    21    47 1   
    46    22    23 1   
    47    22    24 1   
@<TRIPOS>SUBSTRUCTURE
     1 ZGR         1 TEMP              0 ****  ****    0 ROOT
