@<TRIPOS>MOLECULE
ZGS
   83    82     1     0     0
SMALL
abcg2


@<TRIPOS>ATOM
      1 C01        137.8830   150.9310   180.5920 c3         1 ZGS      -0.085100
      2 C02        138.2550   152.1760   181.4090 c3         1 ZGS      -0.044200
      3 C03        139.7320   152.2630   181.6570 c2         1 ZGS      -0.218200
      4 C04        140.3690   152.1560   182.8240 c2         1 ZGS      -0.212200
      5 C05        139.7580   151.9190   184.1810 c3         1 ZGS      -0.011000
      6 C06        140.0080   150.5050   184.6380 c2         1 ZGS      -0.213200
      7 C07        140.8230   150.1000   185.6110 c2         1 ZGS      -0.213200
      8 C08        141.6630   150.9570   186.5210 c3         1 ZGS      -0.012000
      9 C09        141.1550   150.8980   187.9390 c2         1 ZGS      -0.213200
     10 C10        141.7230   150.2780   188.9740 c2         1 ZGS      -0.217200
     11 C11        143.0160   149.5170   188.9770 c3         1 ZGS      -0.042200
     12 C12        144.1410   150.2140   189.7630 c3         1 ZGS      -0.070400
     13 C13        143.8540   150.3820   191.2530 c3         1 ZGS      -0.078400
     14 C14        145.0330   150.9840   192.0160 c3         1 ZGS      -0.075400
     15 C15        144.8110   151.1030   193.5260 c3         1 ZGS      -0.071400
     16 C16        143.6430   151.9960   193.9530 c3         1 ZGS      -0.069400
     17 C17        143.7850   153.4440   193.4520 c3         1 ZGS      -0.137400
     18 C18        142.6790   154.3050   193.9950 c          1 ZGS       0.600100
     19 C21        142.1420   155.8630   195.7460 c3         1 ZGS       0.160600
     20 C22        142.5830   157.2980   195.5590 c3         1 ZGS       0.152300
     21 C23        141.7850   158.2280   196.4540 c3         1 ZGS       0.178600
     22 C29        140.6890   160.0900   199.2680 c3         1 ZGS       0.220600
     23 C30        139.8810   161.2680   199.8000 c3         1 ZGS       0.063600
     24 C32        137.6600   160.1670   199.8710 c3         1 ZGS       0.085233
     25 C33        139.1250   160.0610   201.8340 c3         1 ZGS       0.085233
     26 C34        138.0970   162.1750   201.1810 c3         1 ZGS       0.085233
     27 N31        138.6990   160.9000   200.6670 n4         1 ZGS      -0.510000
     28 O19        141.5580   154.3530   193.5370 o          1 ZGS      -0.482000
     29 O20        143.0750   154.9830   195.0870 os         1 ZGS      -0.454100
     30 O24        142.2630   159.5530   196.2100 os         1 ZGS      -0.589400
     31 O26        142.2850   162.0240   196.4250 o          1 ZGS      -0.799000
     32 O27        140.0170   160.7410   196.5360 o          1 ZGS      -0.799000
     33 O28        141.7150   160.6250   198.4360 os         1 ZGS      -0.574400
     34 O35        142.4110   157.6400   194.1860 oh         1 ZGS      -0.665000
     35 P25        141.4790   160.8400   196.8280 p5         1 ZGS       1.381800
     36 H1         136.8130   150.9120   180.3750 hc         1 ZGS       0.032367
     37 H2         138.4220   150.9110   179.6410 hc         1 ZGS       0.032367
     38 H3         138.1370   150.0200   181.1400 hc         1 ZGS       0.032367
     39 H4         137.9350   153.0660   180.8560 hc         1 ZGS       0.042700
     40 H5         137.7010   152.1730   182.3480 hc         1 ZGS       0.042700
     41 H6         140.3380   152.4030   180.7650 ha         1 ZGS       0.165000
     42 H7         141.4550   152.2060   182.8190 ha         1 ZGS       0.168000
     43 H8         140.1780   152.6300   184.8940 hc         1 ZGS       0.050700
     44 H9         138.6810   152.0950   184.1510 hc         1 ZGS       0.050700
     45 H10        139.4730   149.7460   184.0720 ha         1 ZGS       0.167000
     46 H11        140.8890   149.0330   185.8100 ha         1 ZGS       0.167000
     47 H12        142.6990   150.6160   186.4740 hc         1 ZGS       0.050700
     48 H13        141.6560   151.9950   186.1820 hc         1 ZGS       0.050700
     49 H14        140.2050   151.4010   188.1010 ha         1 ZGS       0.170000
     50 H15        141.2070   150.3300   189.9290 ha         1 ZGS       0.169000
     51 H16        142.8430   148.5330   189.4280 hc         1 ZGS       0.042200
     52 H17        143.3560   149.3360   187.9570 hc         1 ZGS       0.042200
     53 H18        145.0590   149.6290   189.6410 hc         1 ZGS       0.038700
     54 H19        144.3330   151.1950   189.3160 hc         1 ZGS       0.038700
     55 H20        142.9690   151.0100   191.3870 hc         1 ZGS       0.040700
     56 H21        143.6070   149.4050   191.6860 hc         1 ZGS       0.040700
     57 H22        145.9180   150.3630   191.8470 hc         1 ZGS       0.038200
     58 H23        145.2710   151.9660   191.5950 hc         1 ZGS       0.038200
     59 H24        144.6430   150.1030   193.9400 hc         1 ZGS       0.039200
     60 H25        145.7270   151.4810   193.9910 hc         1 ZGS       0.039200
     61 H26        143.5870   152.0020   195.0450 hc         1 ZGS       0.047200
     62 H27        142.6960   151.5870   193.5930 hc         1 ZGS       0.047200
     63 H28        144.7500   153.8490   193.7570 hc         1 ZGS       0.074200
     64 H29        143.7200   153.4740   192.3640 hc         1 ZGS       0.074200
     65 H30        141.1430   155.7070   195.3450 h1         1 ZGS       0.060700
     66 H31        142.1660   155.5960   196.8020 h1         1 ZGS       0.060700
     67 H32        143.6430   157.3810   195.8310 h1         1 ZGS       0.053700
     68 H33        140.7190   158.1650   196.2170 h1         1 ZGS       0.022700
     69 H34        141.9380   157.9600   197.5030 h1         1 ZGS       0.022700
     70 H35        140.0610   159.3970   198.7110 h1         1 ZGS       0.040200
     71 H36        141.1880   159.5510   200.0710 h1         1 ZGS       0.040200
     72 H37        140.5200   161.9100   200.4040 hx         1 ZGS       0.108700
     73 H38        139.4840   161.8390   198.9650 hx         1 ZGS       0.108700
     74 H39        136.8010   159.9960   200.5150 hx         1 ZGS       0.091256
     75 H40        137.3820   160.7830   199.0200 hx         1 ZGS       0.091256
     76 H41        138.0670   159.2180   199.5370 hx         1 ZGS       0.091256
     77 H42        138.2620   159.9170   202.4780 hx         1 ZGS       0.091256
     78 H43        139.4810   159.1010   201.4720 hx         1 ZGS       0.091256
     79 H44        139.9130   160.5860   202.3670 hx         1 ZGS       0.091256
     80 H45        137.2320   161.9240   201.7890 hx         1 ZGS       0.091256
     81 H46        138.8440   162.6930   201.7770 hx         1 ZGS       0.091256
     82 H47        137.8010   162.7830   200.3300 hx         1 ZGS       0.091256
     83 H49        142.6230   158.5790   194.0980 ho         1 ZGS       0.473000
@<TRIPOS>BOND
     1     1     2 1   
     2     1    36 1   
     3     1    37 1   
     4     1    38 1   
     5     2     3 1   
     6     2    39 1   
     7     2    40 1   
     8     3     4 2   
     9     3    41 1   
    10     4     5 1   
    11     4    42 1   
    12     5     6 1   
    13     5    43 1   
    14     5    44 1   
    15     6     7 2   
    16     6    45 1   
    17     7     8 1   
    18     7    46 1   
    19     8     9 1   
    20     8    47 1   
    21     8    48 1   
    22     9    10 2   
    23     9    49 1   
    24    10    11 1   
    25    10    50 1   
    26    11    12 1   
    27    11    51 1   
    28    11    52 1   
    29    12    13 1   
    30    12    53 1   
    31    12    54 1   
    32    13    14 1   
    33    13    55 1   
    34    13    56 1   
    35    14    15 1   
    36    14    57 1   
    37    14    58 1   
    38    15    16 1   
    39    15    59 1   
    40    15    60 1   
    41    16    17 1   
    42    16    61 1   
    43    16    62 1   
    44    17    18 1   
    45    17    63 1   
    46    17    64 1   
    47    18    28 2   
    48    18    29 1   
    49    19    20 1   
    50    19    29 1   
    51    19    65 1   
    52    19    66 1   
    53    20    21 1   
    54    20    34 1   
    55    20    67 1   
    56    21    30 1   
    57    21    68 1   
    58    21    69 1   
    59    22    23 1   
    60    22    33 1   
    61    22    70 1   
    62    22    71 1   
    63    23    27 1   
    64    23    72 1   
    65    23    73 1   
    66    24    27 1   
    67    24    74 1   
    68    24    75 1   
    69    24    76 1   
    70    25    27 1   
    71    25    77 1   
    72    25    78 1   
    73    25    79 1   
    74    26    27 1   
    75    26    80 1   
    76    26    81 1   
    77    26    82 1   
    78    30    35 1   
    79    31    35 1   
    80    32    35 1   
    81    33    35 1   
    82    34    83 1   
@<TRIPOS>SUBSTRUCTURE
     1 ZGS         1 TEMP              0 ****  ****    0 ROOT
