@<TRIPOS>MOLECULE
ZGS
   83    82     1     0     0
SMALL
No Charge or Current Charge


@<TRIPOS>ATOM
      1 C01        138.4320   154.4980   182.5430 c3         1 ZGS      -0.085100
      2 C02        139.9570   154.3590   182.6990 c3         1 ZGS      -0.044200
      3 C03        140.4410   152.9590   182.3710 c2         1 ZGS      -0.218200
      4 C04        140.6610   151.9520   183.2360 c2         1 ZGS      -0.212200
      5 C05        140.4510   151.9720   184.7390 c3         1 ZGS      -0.011000
      6 C06        139.8370   150.6690   185.2160 c2         1 ZGS      -0.213200
      7 C07        140.1320   149.9980   186.3440 c2         1 ZGS      -0.213200
      8 C08        141.1300   150.4020   187.4120 c3         1 ZGS      -0.012000
      9 C09        140.6780   149.9280   188.7820 c2         1 ZGS      -0.213200
     10 C10        141.3550   149.1430   189.6390 c2         1 ZGS      -0.217200
     11 C11        142.7230   148.5180   189.4270 c3         1 ZGS      -0.042200
     12 C12        143.8850   149.4680   189.7920 c3         1 ZGS      -0.070400
     13 C13        143.9200   149.8670   191.2850 c3         1 ZGS      -0.078400
     14 C14        145.1050   150.7990   191.6310 c3         1 ZGS      -0.075400
     15 C15        145.2240   151.1560   193.1340 c3         1 ZGS      -0.071400
     16 C16        144.0100   151.8960   193.7510 c3         1 ZGS      -0.069400
     17 C17        143.6790   153.2540   193.0820 c3         1 ZGS      -0.137400
     18 C18        142.5640   153.9890   193.8290 c          1 ZGS       0.600100
     19 C21        142.1650   155.5510   195.6520 c3         1 ZGS       0.160600
     20 C22        142.0030   156.9570   195.0010 c3         1 ZGS       0.152300
     21 C23        141.1620   157.9170   195.8830 c3         1 ZGS       0.178600
     22 C29        140.4810   160.6690   197.9180 c3         1 ZGS       0.220600
     23 C30        139.1540   160.9960   198.6480 c3         1 ZGS       0.063600
     24 C32        139.3560   159.3300   200.5390 c3         1 ZGS       0.085233
     25 C33        140.1330   161.6930   200.8750 c3         1 ZGS       0.085233
     26 C34        137.6950   161.1890   200.6720 c3         1 ZGS       0.085233
     27 N31        139.0950   160.8000   200.1780 n4         1 ZGS      -0.510000
     28 O19        141.3750   153.7630   193.6450 o          1 ZGS      -0.482000
     29 O20        143.0670   154.7390   194.8630 os         1 ZGS      -0.454100
     30 O24        140.7060   159.0000   195.0510 os         1 ZGS      -0.589400
     31 O26        138.9840   160.7450   194.3650 o          1 ZGS      -0.799000
     32 O27        138.4220   159.2220   196.2230 o          1 ZGS      -0.799000
     33 O28        140.3350   160.9400   196.5160 os         1 ZGS      -0.574400
     34 O35        141.4010   156.8950   193.6950 oh         1 ZGS      -0.665000
     35 P25        139.5060   159.9700   195.5280 p5         1 ZGS       1.381800
     36 H1         138.1140   155.5190   182.7820 hc         1 ZGS       0.032367
     37 H2         138.1270   154.2730   181.5140 hc         1 ZGS       0.032367
     38 H3         137.9110   153.8080   183.2180 hc         1 ZGS       0.032367
     39 H4         140.4520   155.0860   182.0430 hc         1 ZGS       0.042700
     40 H5         140.2350   154.6410   183.7220 hc         1 ZGS       0.042700
     41 H6         140.6320   152.8020   181.3070 ha         1 ZGS       0.165000
     42 H7         141.0280   150.9950   182.8580 ha         1 ZGS       0.168000
     43 H8         141.4130   152.1530   185.2310 hc         1 ZGS       0.050700
     44 H9         139.7950   152.8010   185.0300 hc         1 ZGS       0.050700
     45 H10        139.0830   150.2650   184.5370 ha         1 ZGS       0.167000
     46 H11        139.6150   149.0600   186.5580 ha         1 ZGS       0.167000
     47 H12        142.1160   149.9990   187.1570 hc         1 ZGS       0.050700
     48 H13        141.2500   151.4920   187.4370 hc         1 ZGS       0.050700
     49 H14        139.6940   150.3070   189.0670 ha         1 ZGS       0.170000
     50 H15        140.9050   148.8900   190.6020 ha         1 ZGS       0.169000
     51 H16        142.8080   147.5980   190.0190 hc         1 ZGS       0.042200
     52 H17        142.8410   148.2070   188.3820 hc         1 ZGS       0.042200
     53 H18        144.8320   148.9780   189.5310 hc         1 ZGS       0.038700
     54 H19        143.8170   150.3720   189.1750 hc         1 ZGS       0.038700
     55 H20        142.9790   150.3680   191.5410 hc         1 ZGS       0.040700
     56 H21        143.9810   148.9610   191.9000 hc         1 ZGS       0.040700
     57 H22        146.0380   150.3100   191.3230 hc         1 ZGS       0.038200
     58 H23        145.0320   151.7180   191.0370 hc         1 ZGS       0.038200
     59 H24        145.3960   150.2340   193.7020 hc         1 ZGS       0.039200
     60 H25        146.1200   151.7730   193.2750 hc         1 ZGS       0.039200
     61 H26        144.2230   152.0700   194.8140 hc         1 ZGS       0.047200
     62 H27        143.1250   151.2480   193.7210 hc         1 ZGS       0.047200
     63 H28        144.5870   153.8690   193.1080 hc         1 ZGS       0.074200
     64 H29        143.3570   153.0830   192.0490 hc         1 ZGS       0.074200
     65 H30        141.1860   155.0700   195.7840 h1         1 ZGS       0.060700
     66 H31        142.5910   155.6940   196.6540 h1         1 ZGS       0.060700
     67 H32        143.0060   157.3980   194.9140 h1         1 ZGS       0.053700
     68 H33        140.3130   157.3680   196.3110 h1         1 ZGS       0.022700
     69 H34        141.7870   158.2870   196.7060 h1         1 ZGS       0.022700
     70 H35        140.7380   159.6180   198.0930 h1         1 ZGS       0.040200
     71 H36        141.2860   161.2850   198.3360 h1         1 ZGS       0.040200
     72 H37        138.9100   162.0400   198.4410 hx         1 ZGS       0.108700
     73 H38        138.3630   160.3810   198.2170 hx         1 ZGS       0.108700
     74 H39        139.2670   159.2040   201.6200 hx         1 ZGS       0.091256
     75 H40        138.6200   158.6990   200.0350 hx         1 ZGS       0.091256
     76 H41        140.3620   159.0500   200.2200 hx         1 ZGS       0.091256
     77 H42        140.0480   161.5660   201.9560 hx         1 ZGS       0.091256
     78 H43        141.1360   161.4060   200.5520 hx         1 ZGS       0.091256
     79 H44        139.9450   162.7360   200.6130 hx         1 ZGS       0.091256
     80 H45        137.6440   161.0520   201.7540 hx         1 ZGS       0.091256
     81 H46        137.5040   162.2360   200.4250 hx         1 ZGS       0.091256
     82 H47        136.9520   160.5550   200.1850 hx         1 ZGS       0.091256
     83 H49        140.9390   157.7650   193.6230 ho         1 ZGS       0.473000
@<TRIPOS>BOND
     1     1     2 1   
     2     1    36 1   
     3     1    37 1   
     4     1    38 1   
     5     2     3 1   
     6     2    39 1   
     7     2    40 1   
     8     3     4 2   
     9     3    41 1   
    10     4     5 1   
    11     4    42 1   
    12     5     6 1   
    13     5    43 1   
    14     5    44 1   
    15     6     7 2   
    16     6    45 1   
    17     7     8 1   
    18     7    46 1   
    19     8     9 1   
    20     8    47 1   
    21     8    48 1   
    22     9    10 2   
    23     9    49 1   
    24    10    11 1   
    25    10    50 1   
    26    11    12 1   
    27    11    51 1   
    28    11    52 1   
    29    12    13 1   
    30    12    53 1   
    31    12    54 1   
    32    13    14 1   
    33    13    55 1   
    34    13    56 1   
    35    14    15 1   
    36    14    57 1   
    37    14    58 1   
    38    15    16 1   
    39    15    59 1   
    40    15    60 1   
    41    16    17 1   
    42    16    61 1   
    43    16    62 1   
    44    17    18 1   
    45    17    63 1   
    46    17    64 1   
    47    18    28 2   
    48    18    29 1   
    49    19    20 1   
    50    19    29 1   
    51    19    65 1   
    52    19    66 1   
    53    20    21 1   
    54    20    34 1   
    55    20    67 1   
    56    21    30 1   
    57    21    68 1   
    58    21    69 1   
    59    22    23 1   
    60    22    33 1   
    61    22    70 1   
    62    22    71 1   
    63    23    27 1   
    64    23    72 1   
    65    23    73 1   
    66    24    27 1   
    67    24    74 1   
    68    24    75 1   
    69    24    76 1   
    70    25    27 1   
    71    25    77 1   
    72    25    78 1   
    73    25    79 1   
    74    26    27 1   
    75    26    80 1   
    76    26    81 1   
    77    26    82 1   
    78    30    35 1   
    79    31    35 1   
    80    32    35 1   
    81    33    35 1   
    82    34    83 1   
@<TRIPOS>SUBSTRUCTURE
     1 ZGS         1 TEMP              0 ****  ****    0 ROOT
