@<TRIPOS>MOLECULE
ZGV
   46    46     1     0     0
SMALL
No Charge or Current Charge


@<TRIPOS>ATOM
      1 C1           4.0750    41.0610    78.4710 c3         1 ZGV      -0.070400
      2 C2           4.9250    39.7690    78.5050 c3         1 ZGV       0.211500
      3 C3           5.7820    39.6800    79.7470 c2         1 ZGV      -0.254200
      4 C4           5.3420    39.5270    81.0160 ce         1 ZGV      -0.155000
      5 C5           6.2480    39.4500    82.1730 ce         1 ZGV      -0.178000
      6 C6           5.9010    39.3640    83.4920 cf         1 ZGV      -0.064200
      7 C7           4.4490    39.4060    83.9620 c3         1 ZGV      -0.058900
      8 O1           9.0520    39.1570    86.5390 o          1 ZGV      -0.552100
      9 O3           4.5210    36.2170    91.9400 o          1 ZGV      -0.716500
     10 O5           4.0770    38.6230    78.4640 oh         1 ZGV      -0.658000
     11 C8           6.9450    39.2940    84.5200 cf         1 ZGV      -0.123000
     12 C9           6.7860    38.9630    85.8390 ce         1 ZGV      -0.284200
     13 C10          7.8940    38.9030    86.8330 c          1 ZGV       0.606300
     14 C11          8.2160    38.3810    89.2410 c          1 ZGV       0.613300
     15 C12          7.4030    37.9730    90.4150 ce         1 ZGV      -0.313200
     16 C13          7.9030    37.7530    91.6680 cf         1 ZGV      -0.050000
     17 C14          7.1300    37.3460    92.8370 cf         1 ZGV       0.039600
     18 C15          7.3400    37.3590    94.1510 cv         1 ZGV      -0.392200
     19 C16          5.8330    37.7090    94.4420 cy         1 ZGV       0.100200
     20 C18          3.3000    41.2730    77.1530 c3         1 ZGV      -0.084100
     21 N1           5.8400    37.8180    92.9110 nj         1 ZGV      -0.334000
     22 N2           7.4920    38.5390    88.0910 ns         1 ZGV      -0.476500
     23 H5           4.7390    41.9210    78.6250 hc         1 ZGV       0.048700
     24 H4           3.3670    41.0590    79.3090 hc         1 ZGV       0.048700
     25 H6           5.5870    39.7700    77.6280 h1         1 ZGV       0.029700
     26 H8           6.8500    39.7620    79.5420 ha         1 ZGV       0.166000
     27 H9           4.2700    39.4460    81.2020 ha         1 ZGV       0.176000
     28 H10          7.3120    39.4470    81.9290 ha         1 ZGV       0.173000
     29 H12          4.0270    38.3970    84.0320 hc         1 ZGV       0.046033
     30 H11          4.3490    39.8820    84.9440 hc         1 ZGV       0.046033
     31 H13          3.8120    39.9910    83.2900 hc         1 ZGV       0.046033
     32 H7           4.6390    37.8630    78.7270 ho         1 ZGV       0.438000
     33 H14          7.9600    39.5150    84.1790 ha         1 ZGV       0.193000
     34 H15          5.7980    38.7090    86.2150 ha         1 ZGV       0.187000
     35 H17          6.3360    37.8410    90.2460 ha         1 ZGV       0.240000
     36 H18          8.9750    37.8740    91.8310 ha         1 ZGV       0.173000
     37 H19          8.3030    37.6610    94.5630 ha         1 ZGV       0.183000
     38 H21          5.6210    38.6640    94.9360 h1         1 ZGV       0.054700
     39 H20          5.2160    36.9030    94.8630 h1         1 ZGV       0.054700
     40 H24          2.7520    42.2220    77.1810 hc         1 ZGV       0.033367
     41 H3           3.9880    41.3000    76.2990 hc         1 ZGV       0.033367
     42 H25          2.5760    40.4660    76.9890 hc         1 ZGV       0.033367
     43 H16          6.5050    38.3610    88.1820 hn         1 ZGV       0.328500
     44 O4           3.5390    37.7660    92.9380 o          1 ZGV      -0.716500
     45 C17          4.5910    37.2340    92.6110 c          1 ZGV       0.743000
     46 O2           9.4220    38.5550    89.3130 o          1 ZGV      -0.562100
@<TRIPOS>BOND
     1     1     2 1   
     2     1    20 1   
     3     1    23 1   
     4     1    24 1   
     5     2     3 1   
     6     2    10 1   
     7     2    25 1   
     8     3     4 2   
     9     3    26 1   
    10     4     5 1   
    11     4    27 1   
    12     5     6 2   
    13     5    28 1   
    14     6     7 1   
    15     6    11 1   
    16     7    29 1   
    17     7    30 1   
    18     7    31 1   
    19     8    13 2   
    20     9    45 1   
    21    10    32 1   
    22    11    12 2   
    23    11    33 1   
    24    12    13 1   
    25    12    34 1   
    26    13    22 1   
    27    14    15 1   
    28    14    22 1   
    29    14    46 2   
    30    15    16 2   
    31    15    35 1   
    32    16    17 1   
    33    16    36 1   
    34    17    18 2   
    35    17    21 1   
    36    18    19 1   
    37    18    37 1   
    38    19    21 1   
    39    19    38 1   
    40    19    39 1   
    41    20    40 1   
    42    20    41 1   
    43    20    42 1   
    44    21    45 1   
    45    22    43 1   
    46    44    45 1   
@<TRIPOS>SUBSTRUCTURE
     1 ZGV         1 TEMP              0 ****  ****    0 ROOT
