@<TRIPOS>MOLECULE
ZGV
   46    46     1     0     0
SMALL
bcc


@<TRIPOS>ATOM
      1 C1           3.7860    40.3760    78.6260 c3         1 ZGV      -0.070400
      2 C2           5.2740    40.0980    78.4920 c3         1 ZGV       0.188300
      3 C3           5.9840    39.8450    79.7920 c2         1 ZGV      -0.204200
      4 C4           5.4600    39.8870    81.0230 ce         1 ZGV      -0.105000
      5 C5           6.2430    39.5730    82.1960 ce         1 ZGV      -0.128000
      6 C6           5.8200    39.5400    83.4810 cf         1 ZGV      -0.064200
      7 C7           4.4280    39.8670    83.9260 c3         1 ZGV      -0.058900
      8 O1           8.7420    38.2820    86.3490 o          1 ZGV      -0.552100
      9 O3           4.3290    37.7900    91.6470 o          1 ZGV      -0.821800
     10 O5           5.4390    38.9710    77.6440 oh         1 ZGV      -0.595800
     11 C8           6.7880    39.1390    84.4800 cf         1 ZGV      -0.073000
     12 C9           6.5510    39.0050    85.7950 ce         1 ZGV      -0.234200
     13 C10          7.6130    38.5470    86.7070 c          1 ZGV       0.673300
     14 C11          7.9010    37.9900    89.1170 c          1 ZGV       0.680300
     15 C12          7.1100    38.0210    90.3630 ce         1 ZGV      -0.263200
     16 C13          7.6450    37.5790    91.5080 cf         1 ZGV       0.000000
     17 C14          7.0510    37.5790    92.8170 cf         1 ZGV       0.039600
     18 C15          7.5720    37.2570    94.0210 cv         1 ZGV      -0.342200
     19 C16          6.2840    37.6690    94.6810 cy         1 ZGV       0.100200
     20 C18          3.1080    40.6710    77.2950 c3         1 ZGV      -0.084100
     21 N1           5.8220    38.0450    93.3370 nj         1 ZGV      -0.401000
     22 N2           7.1850    38.4420    88.0210 ns         1 ZGV      -0.610500
     23 H5           3.6590    41.2310    79.2930 hc         1 ZGV       0.048700
     24 H4           3.2970    39.5270    79.1140 hc         1 ZGV       0.048700
     25 H6           5.7380    40.9830    78.0300 h1         1 ZGV       0.029700
     26 H8           7.0380    39.5920    79.6890 ha         1 ZGV       0.116000
     27 H9           4.4150    40.1420    81.1560 ha         1 ZGV       0.126000
     28 H10          7.2830    39.3170    82.0070 ha         1 ZGV       0.123000
     29 H12          3.9690    39.0150    84.4310 hc         1 ZGV       0.046033
     30 H11          4.4330    40.6930    84.6410 hc         1 ZGV       0.046033
     31 H13          3.7750    40.1520    83.1050 hc         1 ZGV       0.046033
     32 H7           6.3650    38.9130    77.3890 ho         1 ZGV       0.399000
     33 H14          7.7860    38.9150    84.1150 ha         1 ZGV       0.143000
     34 H15          5.5720    39.2130    86.2100 ha         1 ZGV       0.137000
     35 H17          6.0910    38.3860    90.3430 ha         1 ZGV       0.190000
     36 H18          8.6590    37.1900    91.4980 ha         1 ZGV       0.123000
     37 H19          8.5440    36.9530    94.3740 ha         1 ZGV       0.133000
     38 H21          6.3480    38.5040    95.3820 h1         1 ZGV       0.054700
     39 H20          5.7070    36.8620    95.1360 h1         1 ZGV       0.054700
     40 H24          2.0560    40.9110    77.4440 hc         1 ZGV       0.033367
     41 H3           3.5710    41.5250    76.7960 hc         1 ZGV       0.033367
     42 H25          3.1610    39.8210    76.6160 hc         1 ZGV       0.033367
     43 H16          6.2270    38.7060    88.1980 hn         1 ZGV       0.328500
     44 O4           3.6220    37.9420    93.7670 o          1 ZGV      -0.821800
     45 C17          4.4860    37.9010    92.8760 c          1 ZGV       1.020600
     46 O2           9.0490    37.6070    89.0550 o          1 ZGV      -0.562100
@<TRIPOS>BOND
     1     1     2 1   
     2     1    20 1   
     3     1    23 1   
     4     1    24 1   
     5     2     3 1   
     6     2    10 1   
     7     2    25 1   
     8     3     4 2   
     9     3    26 1   
    10     4     5 1   
    11     4    27 1   
    12     5     6 2   
    13     5    28 1   
    14     6     7 1   
    15     6    11 1   
    16     7    29 1   
    17     7    30 1   
    18     7    31 1   
    19     8    13 2   
    20     9    45 1   
    21    10    32 1   
    22    11    12 2   
    23    11    33 1   
    24    12    13 1   
    25    12    34 1   
    26    13    22 1   
    27    14    15 1   
    28    14    22 1   
    29    14    46 2   
    30    15    16 2   
    31    15    35 1   
    32    16    17 1   
    33    16    36 1   
    34    17    18 2   
    35    17    21 1   
    36    18    19 1   
    37    18    37 1   
    38    19    21 1   
    39    19    38 1   
    40    19    39 1   
    41    20    40 1   
    42    20    41 1   
    43    20    42 1   
    44    21    45 1   
    45    22    43 1   
    46    44    45 1   
@<TRIPOS>SUBSTRUCTURE
     1 ZGV         1 TEMP              0 ****  ****    0 ROOT
