@<TRIPOS>MOLECULE
ZGW
   67    69     1     0     0
SMALL
No Charge or Current Charge


@<TRIPOS>ATOM
      1 C1          13.3540     1.3910    17.0800 c1         1 ZGW       0.281900
      2 C2          13.1630    -0.0680    17.1990 c3         1 ZGW       0.172800
      3 C3          13.7140    -0.8300    15.9630 c3         1 ZGW      -0.069400
      4 C4          13.5990    -2.3830    16.0240 c5         1 ZGW      -0.160700
      5 C5          14.4420    -3.0740    17.1330 c5         1 ZGW      -0.096400
      6 C6          14.4910    -4.5340    16.6060 c5         1 ZGW       0.101000
      7 C8          14.0810    -3.0940    14.7540 c          1 ZGW       0.564000
      8 C12          9.7430    -1.4780    18.1780 c5         1 ZGW       0.063700
      9 C15          9.2880    -5.2960    19.0940 c3         1 ZGW       0.050700
     10 C16         10.3860    -5.6720    20.1670 c3         1 ZGW      -0.047000
     11 C17         11.7920    -5.7760    19.5090 c3         1 ZGW      -0.092433
     12 C18         10.4500    -4.6120    21.2990 c3         1 ZGW      -0.092433
     13 C19         10.0540    -7.0400    20.8310 c3         1 ZGW      -0.092433
     14 C24          8.0920    -2.5420    19.7220 c5         1 ZGW       0.136000
     15 C25          7.8870    -1.0220    19.7550 cx         1 ZGW      -0.128700
     16 C26          7.4040    -0.3540    18.4750 cx         1 ZGW      -0.071000
     17 C27          6.6630     0.9760    18.6000 c3         1 ZGW      -0.068100
     18 C28          6.8200    -1.1540    17.2970 c3         1 ZGW      -0.068100
     19 C29          8.8840    -0.3770    18.8280 cx         1 ZGW      -0.129700
     20 C32          8.0680    -8.3750    17.0150 c3         1 ZGW       0.224000
     21 F33          9.2200    -9.0880    17.0210 f          1 ZGW      -0.101000
     22 F34          7.9650    -7.7840    15.8010 f          1 ZGW      -0.101000
     23 F35          7.0480    -9.2610    17.1190 f          1 ZGW      -0.101000
     24 N10         11.7410    -0.3800    17.4130 ns         1 ZGW      -0.494900
     25 N13          9.2710    -2.7320    18.8390 n          1 ZGW      -0.394800
     26 N20          9.0760    -6.3930    18.1170 ns         1 ZGW      -0.468900
     27 N31         13.4770     2.5460    16.9760 n1         1 ZGW      -0.442000
     28 N7          14.5940    -4.2930    15.1680 ns         1 ZGW      -0.518900
     29 O22          7.1980    -7.2970    19.0410 o          1 ZGW      -0.554100
     30 O9          14.2370    -2.6540    13.6260 o          1 ZGW      -0.548000
     31 H1          13.7380    -0.3850    18.0800 h1         1 ZGW       0.104700
     32 H2          14.7670    -0.5530    15.8190 hc         1 ZGW       0.071200
     33 H3          13.1850    -0.4680    15.0720 hc         1 ZGW       0.071200
     34 H4          12.5510    -2.6760    16.1620 hc         1 ZGW       0.092700
     35 H5          15.4510    -2.6500    17.1910 hc         1 ZGW       0.064700
     36 H6          13.9980    -3.0070    18.1310 hc         1 ZGW       0.064700
     37 H7          13.5720    -5.0830    16.8530 h1         1 ZGW       0.044200
     38 H8          15.3480    -5.0900    17.0090 h1         1 ZGW       0.044200
     39 H9           9.5720    -1.5310    17.0940 h1         1 ZGW       0.088700
     40 H10          8.3410    -5.1310    19.6210 h1         1 ZGW       0.079700
     41 H11         12.5440    -6.0890    20.2440 hc         1 ZGW       0.043256
     42 H12         11.7990    -6.5090    18.6940 hc         1 ZGW       0.043256
     43 H13         12.1160    -4.8100    19.1020 hc         1 ZGW       0.043256
     44 H14          9.4840    -4.5240    21.8100 hc         1 ZGW       0.043256
     45 H15         11.1970    -4.8900    22.0520 hc         1 ZGW       0.043256
     46 H16         10.7320    -3.6250    20.9150 hc         1 ZGW       0.043256
     47 H17          9.0470    -7.0290    21.2670 hc         1 ZGW       0.043256
     48 H18         10.1070    -7.8640    20.1100 hc         1 ZGW       0.043256
     49 H19         10.7640    -7.2680    21.6360 hc         1 ZGW       0.043256
     50 H20          7.2110    -3.0740    19.3370 h1         1 ZGW       0.060200
     51 H21          8.2920    -2.9320    20.7270 h1         1 ZGW       0.060200
     52 H22          7.6610    -0.5360    20.7020 hc         1 ZGW       0.101700
     53 H23          7.0490     1.5780    19.4320 hc         1 ZGW       0.044367
     54 H24          6.7670     1.5730    17.6860 hc         1 ZGW       0.044367
     55 H25          5.5930     0.8160    18.7790 hc         1 ZGW       0.044367
     56 H26          5.7500    -1.3370    17.4470 hc         1 ZGW       0.044367
     57 H27          6.9310    -0.5950    16.3590 hc         1 ZGW       0.044367
     58 H28          7.2910    -2.1300    17.1440 hc         1 ZGW       0.044367
     59 H29          9.3480     0.5590    19.1320 hc         1 ZGW       0.106700
     60 H30         11.0650    -0.0170    16.7510 hn         1 ZGW       0.332500
     61 H31          9.7160    -6.4540    17.3310 hn         1 ZGW       0.346500
     62 H32         15.0540    -4.8910    14.4920 hn         1 ZGW       0.327500
     63 C11         11.2710    -1.2390    18.3850 c          1 ZGW       0.599100
     64 C14          9.6080    -3.9890    18.2920 c          1 ZGW       0.594100
     65 O30         11.9830    -1.7020    19.2660 o          1 ZGW      -0.600100
     66 C21          8.0500    -7.3220    18.1590 c          1 ZGW       0.547100
     67 O23         10.1930    -4.0440    17.2130 o          1 ZGW      -0.611100
@<TRIPOS>BOND
     1     1     2 1   
     2     1    27 3   
     3     2     3 1   
     4     2    24 1   
     5     2    31 1   
     6     3     4 1   
     7     3    32 1   
     8     3    33 1   
     9     4     5 1   
    10     4     7 1   
    11     4    34 1   
    12     5     6 1   
    13     5    35 1   
    14     5    36 1   
    15     6    28 1   
    16     6    37 1   
    17     6    38 1   
    18     7    28 1   
    19     7    30 2   
    20     8    19 1   
    21     8    25 1   
    22     8    39 1   
    23     8    63 1   
    24     9    10 1   
    25     9    26 1   
    26     9    40 1   
    27     9    64 1   
    28    10    11 1   
    29    10    12 1   
    30    10    13 1   
    31    11    41 1   
    32    11    42 1   
    33    11    43 1   
    34    12    44 1   
    35    12    45 1   
    36    12    46 1   
    37    13    47 1   
    38    13    48 1   
    39    13    49 1   
    40    14    15 1   
    41    14    25 1   
    42    14    50 1   
    43    14    51 1   
    44    15    16 1   
    45    15    19 1   
    46    15    52 1   
    47    16    17 1   
    48    16    18 1   
    49    16    19 1   
    50    17    53 1   
    51    17    54 1   
    52    17    55 1   
    53    18    56 1   
    54    18    57 1   
    55    18    58 1   
    56    19    59 1   
    57    20    21 1   
    58    20    22 1   
    59    20    23 1   
    60    20    66 1   
    61    24    60 1   
    62    24    63 1   
    63    25    64 1   
    64    26    61 1   
    65    26    66 1   
    66    28    62 1   
    67    29    66 2   
    68    63    65 2   
    69    64    67 2   
@<TRIPOS>SUBSTRUCTURE
     1 ZGW         1 TEMP              0 ****  ****    0 ROOT
