@<TRIPOS>MOLECULE
ZGW
   67    69     1     0     0
SMALL
abcg2


@<TRIPOS>ATOM
      1 C1          12.8450     0.8910    15.8750 c1         1 ZGW       0.281900
      2 C2          12.7850    -0.3800    16.6080 c3         1 ZGW       0.172800
      3 C3          13.6240    -1.4440    15.8880 c3         1 ZGW      -0.069400
      4 C4          13.7550    -2.7120    16.7130 c5         1 ZGW      -0.160700
      5 C5          14.5760    -2.5900    17.9970 c5         1 ZGW      -0.096400
      6 C6          15.1500    -3.9940    18.1950 c5         1 ZGW       0.101000
      7 C8          14.4570    -3.8310    15.9540 c          1 ZGW       0.564000
      8 C12          9.3960    -1.4670    17.9420 c5         1 ZGW       0.063700
      9 C15          9.4850    -5.1770    18.8560 c3         1 ZGW       0.050700
     10 C16         10.8350    -5.6870    19.4350 c3         1 ZGW      -0.047000
     11 C17         11.8360    -6.1180    18.3590 c3         1 ZGW      -0.092433
     12 C18         11.4740    -4.5800    20.2740 c3         1 ZGW      -0.092433
     13 C19         10.5310    -6.8820    20.3440 c3         1 ZGW      -0.092433
     14 C24          8.5410    -2.5700    19.9440 c5         1 ZGW       0.136000
     15 C25          8.0650    -1.1410    19.9600 cx         1 ZGW      -0.128700
     16 C26          7.1160    -0.6650    18.8970 cx         1 ZGW      -0.071000
     17 C27          6.3300     0.5790    19.2450 c3         1 ZGW      -0.068100
     18 C28          6.3350    -1.6200    18.0270 c3         1 ZGW      -0.068100
     19 C29          8.5940    -0.4560    18.7330 cx         1 ZGW      -0.129700
     20 C32          7.1430    -7.1490    16.6060 c3         1 ZGW       0.224000
     21 F33          7.8500    -8.2800    16.6540 f          1 ZGW      -0.101000
     22 F34          7.2540    -6.6540    15.3710 f          1 ZGW      -0.101000
     23 F35          5.8680    -7.4520    16.8120 f          1 ZGW      -0.101000
     24 N10         11.4080    -0.7680    16.7760 ns         1 ZGW      -0.494900
     25 N13          9.2070    -2.7250    18.6500 n          1 ZGW      -0.394800
     26 N20          8.8920    -6.1710    17.9830 ns         1 ZGW      -0.468900
     27 N31         12.9010     1.8800    15.2910 n1         1 ZGW      -0.442000
     28 N7          15.2180    -4.4960    16.8390 ns         1 ZGW      -0.518900
     29 O22          6.8160    -5.2640    18.0080 o          1 ZGW      -0.554100
     30 O9          14.3320    -4.0850    14.7680 o          1 ZGW      -0.548000
     31 H1          13.2010    -0.1880    17.6010 h1         1 ZGW       0.104700
     32 H2          14.6150    -1.0280    15.6870 hc         1 ZGW       0.071200
     33 H3          13.1640    -1.6650    14.9230 hc         1 ZGW       0.071200
     34 H4          12.7540    -3.0980    16.9450 hc         1 ZGW       0.092700
     35 H5          15.3890    -1.8750    17.8470 hc         1 ZGW       0.064700
     36 H6          13.9940    -2.2600    18.8540 hc         1 ZGW       0.064700
     37 H7          14.4940    -4.6130    18.8140 h1         1 ZGW       0.044200
     38 H8          16.1360    -3.9820    18.6590 h1         1 ZGW       0.044200
     39 H9           9.0370    -1.5610    16.9130 h1         1 ZGW       0.088700
     40 H10          8.8130    -5.0420    19.7070 h1         1 ZGW       0.079700
     41 H11         12.7540    -6.4480    18.8490 hc         1 ZGW       0.043256
     42 H12         11.4890    -6.9620    17.7590 hc         1 ZGW       0.043256
     43 H13         12.0960    -5.3060    17.6840 hc         1 ZGW       0.043256
     44 H14         10.8020    -4.2220    21.0560 hc         1 ZGW       0.043256
     45 H15         12.3670    -4.9670    20.7650 hc         1 ZGW       0.043256
     46 H16         11.7850    -3.7250    19.6710 hc         1 ZGW       0.043256
     47 H17          9.8360    -6.6080    21.1410 hc         1 ZGW       0.043256
     48 H18         10.1010    -7.7200    19.7950 hc         1 ZGW       0.043256
     49 H19         11.4510    -7.2370    20.8120 hc         1 ZGW       0.043256
     50 H20          7.7220    -3.2850    20.0400 h1         1 ZGW       0.060200
     51 H21          9.2350    -2.7360    20.7690 h1         1 ZGW       0.060200
     52 H22          8.0610    -0.6400    20.9210 hc         1 ZGW       0.101700
     53 H23          6.9050     1.2660    19.8680 hc         1 ZGW       0.044367
     54 H24          6.0350     1.1180    18.3420 hc         1 ZGW       0.044367
     55 H25          5.4200     0.3190    19.7900 hc         1 ZGW       0.044367
     56 H26          5.4110    -1.9130    18.5300 hc         1 ZGW       0.044367
     57 H27          6.0560    -1.1310    17.0920 hc         1 ZGW       0.044367
     58 H28          6.8670    -2.5340    17.7710 hc         1 ZGW       0.044367
     59 H29          8.9760     0.5580    18.7730 hc         1 ZGW       0.106700
     60 H30         10.8710    -0.9490    15.9410 hn         1 ZGW       0.332500
     61 H31          9.4910    -6.8690    17.5710 hn         1 ZGW       0.346500
     62 H32         15.7000    -5.3480    16.5970 hn         1 ZGW       0.327500
     63 C11         10.8700    -1.0690    17.9740 c          1 ZGW       0.599100
     64 C14          9.6250    -3.8670    18.0740 c          1 ZGW       0.594100
     65 O30         11.4790    -1.0020    19.0270 o          1 ZGW      -0.600100
     66 C21          7.6130    -6.0970    17.6260 c          1 ZGW       0.547100
     67 O23         10.1140    -3.8730    16.9530 o          1 ZGW      -0.611100
@<TRIPOS>BOND
     1     1     2 1   
     2     1    27 3   
     3     2     3 1   
     4     2    24 1   
     5     2    31 1   
     6     3     4 1   
     7     3    32 1   
     8     3    33 1   
     9     4     5 1   
    10     4     7 1   
    11     4    34 1   
    12     5     6 1   
    13     5    35 1   
    14     5    36 1   
    15     6    28 1   
    16     6    37 1   
    17     6    38 1   
    18     7    28 1   
    19     7    30 2   
    20     8    19 1   
    21     8    25 1   
    22     8    39 1   
    23     8    63 1   
    24     9    10 1   
    25     9    26 1   
    26     9    40 1   
    27     9    64 1   
    28    10    11 1   
    29    10    12 1   
    30    10    13 1   
    31    11    41 1   
    32    11    42 1   
    33    11    43 1   
    34    12    44 1   
    35    12    45 1   
    36    12    46 1   
    37    13    47 1   
    38    13    48 1   
    39    13    49 1   
    40    14    15 1   
    41    14    25 1   
    42    14    50 1   
    43    14    51 1   
    44    15    16 1   
    45    15    19 1   
    46    15    52 1   
    47    16    17 1   
    48    16    18 1   
    49    16    19 1   
    50    17    53 1   
    51    17    54 1   
    52    17    55 1   
    53    18    56 1   
    54    18    57 1   
    55    18    58 1   
    56    19    59 1   
    57    20    21 1   
    58    20    22 1   
    59    20    23 1   
    60    20    66 1   
    61    24    60 1   
    62    24    63 1   
    63    25    64 1   
    64    26    61 1   
    65    26    66 1   
    66    28    62 1   
    67    29    66 2   
    68    63    65 2   
    69    64    67 2   
@<TRIPOS>SUBSTRUCTURE
     1 ZGW         1 TEMP              0 ****  ****    0 ROOT
