@<TRIPOS>MOLECULE
ZGX
   19    19     1     0     0
SMALL
abcg2


@<TRIPOS>ATOM
      1 C13         11.7650   -24.2370    23.8420 c2         1 ZGX      -0.176400
      2 C15         11.3980   -22.1890    25.1150 c6         1 ZGX       0.087000
      3 C17          9.6530   -23.0110    23.6100 c          1 ZGX       0.602100
      4 N11         13.2530   -23.6670    25.6380 nu         1 ZGX      -0.790200
      5 C12         12.8830   -24.4470    24.5540 c2         1 ZGX      -0.065000
      6 N14         10.8880   -23.1730    24.1560 n          1 ZGX      -0.320000
      7 C16         12.1700   -22.8910    26.2250 c6         1 ZGX       0.171800
      8 O18          8.9510   -22.0310    23.8790 o          1 ZGX      -0.608100
      9 C19          9.1710   -24.0790    22.6570 c3         1 ZGX      -0.170100
     10 H1          11.5400   -24.8280    22.9720 h4         1 ZGX       0.200000
     11 H2          12.0500   -21.4810    24.5960 h1         1 ZGX       0.069700
     12 H3          10.5530   -21.6430    25.5240 h1         1 ZGX       0.069700
     13 H4          13.8550   -24.1280    26.3050 hn         1 ZGX       0.458000
     14 H5          13.5690   -25.2310    24.2650 h4         1 ZGX       0.195000
     15 H6          12.5820   -22.1470    26.9070 h1         1 ZGX       0.044700
     16 H7          11.4770   -23.5290    26.7900 h1         1 ZGX       0.044700
     17 H8           8.1430   -23.8550    22.3860 hc         1 ZGX       0.062033
     18 H9           9.7810   -24.0960    21.7520 hc         1 ZGX       0.062033
     19 H10          9.2210   -25.0720    23.1080 hc         1 ZGX       0.062033
@<TRIPOS>BOND
     1     1     5 2   
     2     1     6 1   
     3     1    10 1   
     4     2     6 1   
     5     2     7 1   
     6     2    11 1   
     7     2    12 1   
     8     3     6 1   
     9     3     8 2   
    10     3     9 1   
    11     4     5 1   
    12     4     7 1   
    13     4    13 1   
    14     5    14 1   
    15     7    15 1   
    16     7    16 1   
    17     9    17 1   
    18     9    18 1   
    19     9    19 1   
@<TRIPOS>SUBSTRUCTURE
     1 ZGX         1 TEMP              0 ****  ****    0 ROOT
