@<TRIPOS>MOLECULE
ZGX
   19    19     1     0     0
SMALL
No Charge or Current Charge


@<TRIPOS>ATOM
      1 C13         11.7180   -24.3180    23.9240 c2         1 ZGX      -0.176400
      2 C15         11.2930   -22.2510    25.2480 c6         1 ZGX       0.087000
      3 C17          9.6250   -22.9940    23.5060 c          1 ZGX       0.602100
      4 N11         13.2380   -23.7600    25.6710 nu         1 ZGX      -0.790200
      5 C12         12.8730   -24.5370    24.5720 c2         1 ZGX      -0.065000
      6 N14         10.8100   -23.2590    24.2480 n          1 ZGX      -0.320000
      7 C16         12.2860   -22.8260    26.3020 c6         1 ZGX       0.171800
      8 O18          8.9850   -21.9640    23.6900 o          1 ZGX      -0.608100
      9 C19          9.1160   -24.0280    22.4960 c3         1 ZGX      -0.170100
     10 H1          11.4370   -24.9430    23.0770 h4         1 ZGX       0.200000
     11 H2          11.7970   -21.4430    24.6990 h1         1 ZGX       0.069700
     12 H3          10.4420   -21.8020    25.7780 h1         1 ZGX       0.069700
     13 H4          14.1100   -23.9810    26.1670 hn         1 ZGX       0.458000
     14 H5          13.5660   -25.3390    24.2900 h4         1 ZGX       0.195000
     15 H6          12.8090   -22.0060    26.8160 h1         1 ZGX       0.044700
     16 H7          11.7000   -23.3660    27.0600 h1         1 ZGX       0.044700
     17 H8           8.1310   -23.7690    22.0940 hc         1 ZGX       0.062033
     18 H9           9.8490   -24.1250    21.6880 hc         1 ZGX       0.062033
     19 H10          9.1180   -25.0230    22.9560 hc         1 ZGX       0.062033
@<TRIPOS>BOND
     1     1     5 2   
     2     1     6 1   
     3     1    10 1   
     4     2     6 1   
     5     2     7 1   
     6     2    11 1   
     7     2    12 1   
     8     3     6 1   
     9     3     8 2   
    10     3     9 1   
    11     4     5 1   
    12     4     7 1   
    13     4    13 1   
    14     5    14 1   
    15     7    15 1   
    16     7    16 1   
    17     9    17 1   
    18     9    18 1   
    19     9    19 1   
@<TRIPOS>SUBSTRUCTURE
     1 ZGX         1 TEMP              0 ****  ****    0 ROOT
