@<TRIPOS>MOLECULE
ZGY
   47    49     1     0     0
SMALL
No Charge or Current Charge


@<TRIPOS>ATOM
      1 N1         -29.4040    45.2860     5.3480 n7         1 ZGY      -0.884300
      2 C4         -28.6800    45.5280     1.8920 ca         1 ZGY       0.008500
      3 C5         -27.7050    45.1640     0.9490 ca         1 ZGY      -0.149500
      4 C6         -26.9280    46.3570     3.3680 ca         1 ZGY       0.008500
      5 C7         -25.9620    45.9890     2.4170 ca         1 ZGY      -0.149500
      6 C8         -26.3390    45.3800     1.2090 ca         1 ZGY       0.363000
      7 C10        -23.9180    43.2050    -2.3670 ca         1 ZGY       0.200900
      8 C13        -28.2520    41.0190    -1.3230 ca         1 ZGY       0.370000
      9 C17        -30.6820    40.4910    -0.0090 ca         1 ZGY      -0.181000
     10 C1         -30.6030    44.9070     6.1480 c3         1 ZGY       0.282900
     11 C11        -24.8870    42.2140    -2.5890 ca         1 ZGY      -0.248900
     12 C12        -26.0250    42.2320    -1.7680 ca         1 ZGY       0.451900
     13 C14        -29.3360    40.4810    -2.0680 ca         1 ZGY      -0.237600
     14 C16        -30.5530    40.2310    -1.3800 ca         1 ZGY       0.212000
     15 C18        -29.6020    40.9960     0.7180 ca         1 ZGY      -0.058000
     16 C19        -28.3930    41.2500     0.0610 ca         1 ZGY      -0.125000
     17 C2         -31.0020    45.9060     7.1660 c1         1 ZGY       0.294900
     18 C3         -28.2930    46.1250     3.1090 ca         1 ZGY      -0.301500
     19 C9         -25.2150    44.0790    -0.7010 ca         1 ZGY       0.425900
     20 F1         -31.6290    39.7030    -2.0050 f          1 ZGY      -0.174000
     21 N2         -31.3410    46.6770     7.9750 n1         1 ZGY      -0.431000
     22 N4         -24.0790    44.1420    -1.4130 nb         1 ZGY      -0.256000
     23 N6         -30.2900    40.0240    -4.3030 nt         1 ZGY      -0.584000
     24 N7         -26.1910    43.1700    -0.8270 nb         1 ZGY      -0.317000
     25 O1         -29.0420    47.7460     5.0910 o          1 ZGY      -0.538000
     26 O2         -28.1050    40.0590    -4.0980 o          1 ZGY      -0.617100
     27 O3         -30.8600    46.5330     3.7270 o          1 ZGY      -0.538000
     28 S1         -29.5250    46.5950     4.3250 sy         1 ZGY       1.148600
     29 Br1        -24.6280    40.8980    -3.9630 br         1 ZGY      -0.055100
     30 H1         -29.1770    44.5370     4.6950 hn         1 ZGY       0.483000
     31 H8         -24.4610    45.5370     0.4450 hn         1 ZGY       0.521000
     32 H4         -29.7310    45.3510     1.6670 ha         1 ZGY       0.138500
     33 H5         -28.0270    44.7320     0.0080 ha         1 ZGY       0.130500
     34 H6         -26.6120    46.8180     4.3030 ha         1 ZGY       0.138500
     35 H7         -24.9120    46.1690     2.6290 ha         1 ZGY       0.130500
     36 H9         -23.0040    43.2530    -2.9570 h4         1 ZGY       0.039100
     37 H13        -31.6240    40.2830     0.4920 ha         1 ZGY       0.135000
     38 H2         -31.4700    44.7190     5.5010 h1         1 ZGY       0.074700
     39 H3         -30.4070    43.9700     6.6850 h1         1 ZGY       0.074700
     40 H14        -29.6960    41.1830     1.7870 ha         1 ZGY       0.124000
     41 H15        -27.5560    41.6160     0.6440 ha         1 ZGY       0.144000
     42 H10        -26.9730    40.8430    -2.8690 hn         1 ZGY       0.549000
     43 H12        -30.1890    39.8160    -5.2840 hn         1 ZGY       0.323000
     44 H11        -31.2040    40.0980    -3.8820 hn         1 ZGY       0.323000
     45 N3         -25.3360    45.0370     0.2930 nu         1 ZGY      -0.940900
     46 N5         -27.0380    41.3030    -1.9530 nu         1 ZGY      -0.943900
     47 C15        -29.1870    40.1850    -3.5470 c          1 ZGY       0.630700
@<TRIPOS>BOND
     1     1    10 1   
     2     1    28 1   
     3     1    30 1   
     4     2     3 ar  
     5     2    18 ar  
     6     2    32 1   
     7     3     6 ar  
     8     3    33 1   
     9     4     5 ar  
    10     4    18 ar  
    11     4    34 1   
    12     5     6 ar  
    13     5    35 1   
    14     6    45 1   
    15     7    11 ar  
    16     7    22 ar  
    17     7    36 1   
    18     8    13 ar  
    19     8    16 ar  
    20     8    46 1   
    21     9    14 ar  
    22     9    15 ar  
    23     9    37 1   
    24    10    17 1   
    25    10    38 1   
    26    10    39 1   
    27    11    12 ar  
    28    11    29 1   
    29    12    24 ar  
    30    12    46 1   
    31    13    14 ar  
    32    13    47 1   
    33    14    20 1   
    34    15    16 ar  
    35    15    40 1   
    36    16    41 1   
    37    17    21 3   
    38    18    28 1   
    39    19    22 ar  
    40    19    24 ar  
    41    19    45 1   
    42    23    43 1   
    43    23    44 1   
    44    23    47 1   
    45    25    28 2   
    46    26    47 2   
    47    27    28 2   
    48    31    45 1   
    49    42    46 1   
@<TRIPOS>SUBSTRUCTURE
     1 ZGY         1 TEMP              0 ****  ****    0 ROOT
