@<TRIPOS>MOLECULE
ZGY
   47    49     1     0     0
SMALL
abcg2


@<TRIPOS>ATOM
      1 N1         -30.2670    44.4890     4.0390 n7         1 ZGY      -0.884300
      2 C4         -28.8170    45.5570     1.1240 ca         1 ZGY       0.008500
      3 C5         -27.7120    45.3570     0.3230 ca         1 ZGY      -0.149500
      4 C6         -27.3730    46.0400     3.0000 ca         1 ZGY       0.008500
      5 C7         -26.2680    45.8430     2.1910 ca         1 ZGY      -0.149500
      6 C8         -26.4260    45.4720     0.8560 ca         1 ZGY       0.363000
      7 C10        -23.8250    43.0900    -2.2310 ca         1 ZGY       0.200900
      8 C13        -28.0360    41.2540    -0.7410 ca         1 ZGY       0.370000
      9 C17        -30.3130    41.1290     0.8880 ca         1 ZGY      -0.181000
     10 C1         -30.8770    44.3110     5.3450 c3         1 ZGY       0.282900
     11 C11        -24.7610    42.0830    -2.3470 ca         1 ZGY      -0.248900
     12 C12        -25.9250    42.2020    -1.5600 ca         1 ZGY       0.451900
     13 C14        -29.2720    40.8850    -1.2980 ca         1 ZGY      -0.237600
     14 C16        -30.3700    40.8140    -0.4530 ca         1 ZGY       0.212000
     15 C18        -29.0880    41.5180     1.4090 ca         1 ZGY      -0.058000
     16 C19        -27.9570    41.5710     0.6130 ca         1 ZGY      -0.125000
     17 C2         -29.8640    44.3710     6.4000 c1         1 ZGY       0.294900
     18 C3         -28.6420    45.8790     2.4650 ca         1 ZGY      -0.301500
     19 C9         -25.1200    44.1780    -0.7570 ca         1 ZGY       0.425900
     20 F1         -31.5450    40.4080    -0.9570 f          1 ZGY      -0.174000
     21 N2         -29.0750    44.3970     7.2340 n1         1 ZGY      -0.431000
     22 N4         -23.9790    44.1450    -1.4420 nb         1 ZGY      -0.256000
     23 N6         -30.3160    41.1090    -3.4570 nt         1 ZGY      -0.584000
     24 N7         -26.0760    43.2660    -0.7900 nb         1 ZGY      -0.317000
     25 O1         -29.7320    46.8200     4.6840 o          1 ZGY      -0.538000
     26 O2         -28.5790    39.6910    -3.2210 o          1 ZGY      -0.617100
     27 O3         -31.1700    46.4710     2.6590 o          1 ZGY      -0.538000
     28 S1         -30.0580    46.0490     3.4940 sy         1 ZGY       1.148600
     29 BR1        -24.4530    40.6230    -3.4880 br         1 ZGY      -0.055100
     30 H1         -30.6320    43.8640     3.3280 hn         1 ZGY       0.483000
     31 H8         -24.4660    45.7800     0.2800 hn         1 ZGY       0.521000
     32 H4         -29.8060    45.4650     0.6960 ha         1 ZGY       0.138500
     33 H5         -27.8530    45.1150    -0.7190 ha         1 ZGY       0.130500
     34 H6         -27.2330    46.3010     4.0410 ha         1 ZGY       0.138500
     35 H7         -25.2740    45.9530     2.6050 ha         1 ZGY       0.130500
     36 H9         -22.9030    43.0440    -2.8010 h4         1 ZGY       0.039100
     37 H13        -31.1970    41.0590     1.5060 ha         1 ZGY       0.135000
     38 H2         -31.6750    45.0190     5.5780 h1         1 ZGY       0.074700
     39 H3         -31.3240    43.3170     5.3660 h1         1 ZGY       0.074700
     40 H14        -29.0110    41.7670     2.4590 ha         1 ZGY       0.124000
     41 H15        -27.0120    41.8500     1.0510 ha         1 ZGY       0.144000
     42 H10        -26.8840    40.5540    -2.2820 hn         1 ZGY       0.549000
     43 H12        -30.4290    40.8890    -4.4340 hn         1 ZGY       0.323000
     44 H11        -30.9120    41.8220    -3.0720 hn         1 ZGY       0.323000
     45 N3         -25.2990    45.2510     0.0680 nu         1 ZGY      -0.940900
     46 N5         -26.9010    41.2630    -1.5610 nu         1 ZGY      -0.943900
     47 C15        -29.3650    40.5020    -2.7450 c          1 ZGY       0.630700
@<TRIPOS>BOND
     1     1    10 1   
     2     1    28 1   
     3     1    30 1   
     4     2     3 ar  
     5     2    18 ar  
     6     2    32 1   
     7     3     6 ar  
     8     3    33 1   
     9     4     5 ar  
    10     4    18 ar  
    11     4    34 1   
    12     5     6 ar  
    13     5    35 1   
    14     6    45 1   
    15     7    11 ar  
    16     7    22 ar  
    17     7    36 1   
    18     8    13 ar  
    19     8    16 ar  
    20     8    46 1   
    21     9    14 ar  
    22     9    15 ar  
    23     9    37 1   
    24    10    17 1   
    25    10    38 1   
    26    10    39 1   
    27    11    12 ar  
    28    11    29 1   
    29    12    24 ar  
    30    12    46 1   
    31    13    14 ar  
    32    13    47 1   
    33    14    20 1   
    34    15    16 ar  
    35    15    40 1   
    36    16    41 1   
    37    17    21 3   
    38    18    28 1   
    39    19    22 ar  
    40    19    24 ar  
    41    19    45 1   
    42    23    43 1   
    43    23    44 1   
    44    23    47 1   
    45    25    28 2   
    46    26    47 2   
    47    27    28 2   
    48    31    45 1   
    49    42    46 1   
@<TRIPOS>SUBSTRUCTURE
     1 ZGY         1 TEMP              0 ****  ****    0 ROOT
