@<TRIPOS>MOLECULE
ZH0
   58    59     1     0     0
SMALL
No Charge or Current Charge


@<TRIPOS>ATOM
      1 C1          12.7670     0.3290    17.3430 c3         1 ZH0      -0.016300
      2 C2          12.7740     1.8360    16.9790 c          1 ZH0       0.562900
      3 C4          13.5400    -0.5120    16.2910 c3         1 ZH0      -0.066400
      4 C13         10.0610    -6.1630    19.8500 c3         1 ZH0       0.225900
      5 C14         13.5750    -2.0460    16.5540 c5         1 ZH0      -0.158700
      6 C16         14.5800    -3.9890    17.5340 c5         1 ZH0       0.099000
      7 N17         14.8580    -3.9210    16.1010 ns         1 ZH0      -0.511900
      8 C18         14.2940    -2.8500    15.4640 c          1 ZH0       0.561000
      9 C24         11.5890    -6.2290    19.9030 ca         1 ZH0      -0.113300
     10 C25         12.3070    -5.5060    20.8790 ca         1 ZH0      -0.097500
     11 C26         13.7090    -5.5870    20.9360 ca         1 ZH0      -0.111000
     12 C27         14.4050    -6.3970    20.0230 ca         1 ZH0      -0.114000
     13 C10          9.8180    -3.9470    18.9450 c          1 ZH0       0.633100
     14 C15         14.3230    -2.4900    17.8420 c5         1 ZH0      -0.088400
     15 C21          6.9650    -0.8010    18.2680 c3         1 ZH0      -0.060700
     16 C22          6.8820    -0.9030    16.7270 c3         1 ZH0      -0.091100
     17 C23          6.3340    -2.0360    18.9500 c3         1 ZH0      -0.091100
     18 C28         13.6970    -7.1210    19.0490 ca         1 ZH0      -0.111000
     19 C29         12.2950    -7.0360    18.9880 ca         1 ZH0      -0.097500
     20 C7           9.5150    -1.5030    18.4580 c3         1 ZH0       0.055700
     21 C9           8.4000    -0.4650    18.7740 c3         1 ZH0      -0.079400
     22 N3          11.3830    -0.1760    17.5200 ns         1 ZH0      -0.483900
     23 N8           9.4030    -2.7000    19.3130 ns         1 ZH0      -0.476900
     24 O11          9.6160    -4.8000    19.9870 os         1 ZH0      -0.457100
     25 O12         10.2870    -4.2340    17.8550 o          1 ZH0      -0.542000
     26 O19         14.5620    -2.5410    14.3140 o          1 ZH0      -0.568000
     27 O6          11.6120    -1.0040    19.6310 o          1 ZH0      -0.613100
     28 O20         11.7680     2.4830    16.6990 o          1 ZH0      -0.508100
     29 H1          13.3050     0.2550    18.2980 h1         1 ZH0       0.102700
     30 H2          13.7760     2.3180    16.9860 h4         1 ZH0      -0.001800
     31 H3          14.5670    -0.1310    16.2200 hc         1 ZH0       0.061700
     32 H4          13.0840    -0.3310    15.3090 hc         1 ZH0       0.061700
     33 H5           9.6610    -6.7700    20.6730 h1         1 ZH0       0.073200
     34 H6           9.6910    -6.6030    18.9130 h1         1 ZH0       0.073200
     35 H7          12.5540    -2.4410    16.6030 hc         1 ZH0       0.103700
     36 H8          13.6880    -4.5970    17.7390 h1         1 ZH0       0.050700
     37 H9          15.4200    -4.3920    18.1150 h1         1 ZH0       0.050700
     38 H10         15.4620    -4.5430    15.5770 hn         1 ZH0       0.324500
     39 H11         11.7770    -4.8820    21.5960 ha         1 ZH0       0.119500
     40 H12         14.2550    -5.0250    21.6900 ha         1 ZH0       0.115000
     41 H13         15.4900    -6.4620    20.0700 ha         1 ZH0       0.113000
     42 H14         15.2690    -1.9490    17.9620 hc         1 ZH0       0.061700
     43 H15         13.7420    -2.3480    18.7590 hc         1 ZH0       0.061700
     44 H16          6.3410     0.0560    18.5540 hc         1 ZH0       0.048700
     45 H17          5.8360    -0.9780    16.4040 hc         1 ZH0       0.037033
     46 H18          7.3160    -0.0140    16.2530 hc         1 ZH0       0.037033
     47 H19          7.4120    -1.7880    16.3560 hc         1 ZH0       0.037033
     48 H20          6.4240    -1.9690    20.0410 hc         1 ZH0       0.037033
     49 H21          5.2670    -2.1050    18.7050 hc         1 ZH0       0.037033
     50 H22          6.8120    -2.9650    18.6170 hc         1 ZH0       0.037033
     51 H23         14.2350    -7.7470    18.3400 ha         1 ZH0       0.115000
     52 H24         11.7580    -7.6020    18.2300 ha         1 ZH0       0.119500
     53 H25          9.4320    -1.8110    17.4080 h1         1 ZH0       0.080700
     54 H26          8.3720    -0.2880    19.8560 hc         1 ZH0       0.059200
     55 H27          8.6880     0.4950    18.3270 hc         1 ZH0       0.059200
     56 H28         10.7360    -0.0800    16.7440 hn         1 ZH0       0.328500
     57 H29          9.0590    -2.6070    20.2600 hn         1 ZH0       0.335500
     58 C5          10.9310    -0.8780    18.6200 c          1 ZH0       0.583100
@<TRIPOS>BOND
     1     1     2 1   
     2     1     3 1   
     3     1    22 1   
     4     1    29 1   
     5     2    28 2   
     6     2    30 1   
     7     3     5 1   
     8     3    31 1   
     9     3    32 1   
    10     4     9 1   
    11     4    24 1   
    12     4    33 1   
    13     4    34 1   
    14     5     8 1   
    15     5    14 1   
    16     5    35 1   
    17     6     7 1   
    18     6    14 1   
    19     6    36 1   
    20     6    37 1   
    21     7     8 1   
    22     7    38 1   
    23     8    26 2   
    24     9    10 ar  
    25     9    19 ar  
    26    10    11 ar  
    27    10    39 1   
    28    11    12 ar  
    29    11    40 1   
    30    12    18 ar  
    31    12    41 1   
    32    13    23 1   
    33    13    24 1   
    34    13    25 2   
    35    14    42 1   
    36    14    43 1   
    37    15    16 1   
    38    15    17 1   
    39    15    21 1   
    40    15    44 1   
    41    16    45 1   
    42    16    46 1   
    43    16    47 1   
    44    17    48 1   
    45    17    49 1   
    46    17    50 1   
    47    18    19 ar  
    48    18    51 1   
    49    19    52 1   
    50    20    21 1   
    51    20    23 1   
    52    20    53 1   
    53    20    58 1   
    54    21    54 1   
    55    21    55 1   
    56    22    56 1   
    57    22    58 1   
    58    23    57 1   
    59    27    58 2   
@<TRIPOS>SUBSTRUCTURE
     1 ZH0         1 TEMP              0 ****  ****    0 ROOT
