@<TRIPOS>MOLECULE
ZH0
   58    59     1     0     0
SMALL
abcg2


@<TRIPOS>ATOM
      1 C1          12.5980     0.0230    17.2820 c3         1 ZH0      -0.016300
      2 C2          12.6390     1.4800    16.8900 c          1 ZH0       0.562900
      3 C4          13.4250    -0.7970    16.2710 c3         1 ZH0      -0.066400
      4 C13         10.4570    -6.1910    19.0550 c3         1 ZH0       0.225900
      5 C14         13.4920    -2.2730    16.6310 c5         1 ZH0      -0.158700
      6 C16         14.7860    -4.0590    17.6100 c5         1 ZH0       0.099000
      7 N17         14.8870    -4.0650    16.1530 ns         1 ZH0      -0.511900
      8 C18         14.1540    -3.1160    15.5430 c          1 ZH0       0.561000
      9 C24         11.8720    -6.1170    19.5760 ca         1 ZH0      -0.113300
     10 C25         12.2990    -5.1020    20.4280 ca         1 ZH0      -0.097500
     11 C26         13.6050    -5.0910    20.9110 ca         1 ZH0      -0.111000
     12 C27         14.4940    -6.0970    20.5530 ca         1 ZH0      -0.114000
     13 C10          9.8460    -3.9550    18.5440 c          1 ZH0       0.633100
     14 C15         14.2820    -2.6380    17.8950 c5         1 ZH0      -0.088400
     15 C21          6.9440    -0.5470    18.6110 c3         1 ZH0      -0.060700
     16 C22          6.7830    -0.1850    17.1340 c3         1 ZH0      -0.091100
     17 C23          6.2080    -1.8460    18.9430 c3         1 ZH0      -0.091100
     18 C28         14.0730    -7.1130    19.6990 ca         1 ZH0      -0.111000
     19 C29         12.7720    -7.1190    19.2110 ca         1 ZH0      -0.097500
     20 C7           9.3310    -1.5860    18.3850 c3         1 ZH0       0.055700
     21 C9           8.4200    -0.5400    19.0450 c3         1 ZH0      -0.079400
     22 N3          11.2460    -0.4630    17.4060 ns         1 ZH0      -0.483900
     23 N8           9.1780    -2.8830    19.0120 ns         1 ZH0      -0.476900
     24 O11          9.6830    -5.0230    19.3630 os         1 ZH0      -0.457100
     25 O12         10.4970    -3.9760    17.5130 o          1 ZH0      -0.542000
     26 O19         14.0230    -2.9710    14.3290 o          1 ZH0      -0.568000
     27 O6          11.4590    -1.3140    19.5000 o          1 ZH0      -0.613100
     28 O20         11.6670     2.1600    16.6620 o          1 ZH0      -0.508100
     29 H1          13.0670    -0.0530    18.2670 h1         1 ZH0       0.102700
     30 H2          13.6600     1.8960    16.8010 h4         1 ZH0      -0.001800
     31 H3          14.4340    -0.3790    16.2230 hc         1 ZH0       0.061700
     32 H4          12.9790    -0.6910    15.2790 hc         1 ZH0       0.061700
     33 H5           9.9190    -7.0080    19.5350 h1         1 ZH0       0.073200
     34 H6          10.4550    -6.3600    17.9790 h1         1 ZH0       0.073200
     35 H7          12.4730    -2.6660    16.7180 hc         1 ZH0       0.103700
     36 H8          14.0740    -4.8120    17.9500 h1         1 ZH0       0.050700
     37 H9          15.7520    -4.2680    18.0680 h1         1 ZH0       0.050700
     38 H10         15.3040    -4.8230    15.6340 hn         1 ZH0       0.324500
     39 H11         11.6170    -4.3140    20.7150 ha         1 ZH0       0.119500
     40 H12         13.9260    -4.2900    21.5650 ha         1 ZH0       0.115000
     41 H13         15.5110    -6.0850    20.9260 ha         1 ZH0       0.113000
     42 H14         15.1320    -1.9580    18.0040 hc         1 ZH0       0.061700
     43 H15         13.6830    -2.5880    18.8000 hc         1 ZH0       0.061700
     44 H16          6.4760     0.2520    19.1960 hc         1 ZH0       0.048700
     45 H17          5.7260    -0.0780    16.8790 hc         1 ZH0       0.037033
     46 H18          7.2850     0.7570    16.9000 hc         1 ZH0       0.037033
     47 H19          7.1990    -0.9590    16.4840 hc         1 ZH0       0.037033
     48 H20          6.3260    -2.1150    19.9950 hc         1 ZH0       0.037033
     49 H21          5.1410    -1.7370    18.7390 hc         1 ZH0       0.037033
     50 H22          6.5780    -2.6780    18.3400 hc         1 ZH0       0.037033
     51 H23         14.7610    -7.8960    19.4040 ha         1 ZH0       0.115000
     52 H24         12.4510    -7.9080    18.5400 ha         1 ZH0       0.119500
     53 H25          9.0800    -1.6840    17.3280 h1         1 ZH0       0.080700
     54 H26          8.4930    -0.6620    20.1290 hc         1 ZH0       0.059200
     55 H27          8.8310     0.4450    18.8140 hc         1 ZH0       0.059200
     56 H28         10.6380    -0.3690    16.6070 hn         1 ZH0       0.328500
     57 H29          8.7940    -2.9340    19.9420 hn         1 ZH0       0.335500
     58 C5          10.7900    -1.1200    18.4900 c          1 ZH0       0.583100
@<TRIPOS>BOND
     1     1     2 1   
     2     1     3 1   
     3     1    22 1   
     4     1    29 1   
     5     2    28 2   
     6     2    30 1   
     7     3     5 1   
     8     3    31 1   
     9     3    32 1   
    10     4     9 1   
    11     4    24 1   
    12     4    33 1   
    13     4    34 1   
    14     5     8 1   
    15     5    14 1   
    16     5    35 1   
    17     6     7 1   
    18     6    14 1   
    19     6    36 1   
    20     6    37 1   
    21     7     8 1   
    22     7    38 1   
    23     8    26 2   
    24     9    10 ar  
    25     9    19 ar  
    26    10    11 ar  
    27    10    39 1   
    28    11    12 ar  
    29    11    40 1   
    30    12    18 ar  
    31    12    41 1   
    32    13    23 1   
    33    13    24 1   
    34    13    25 2   
    35    14    42 1   
    36    14    43 1   
    37    15    16 1   
    38    15    17 1   
    39    15    21 1   
    40    15    44 1   
    41    16    45 1   
    42    16    46 1   
    43    16    47 1   
    44    17    48 1   
    45    17    49 1   
    46    17    50 1   
    47    18    19 ar  
    48    18    51 1   
    49    19    52 1   
    50    20    21 1   
    51    20    23 1   
    52    20    53 1   
    53    20    58 1   
    54    21    54 1   
    55    21    55 1   
    56    22    56 1   
    57    22    58 1   
    58    23    57 1   
    59    27    58 2   
@<TRIPOS>SUBSTRUCTURE
     1 ZH0         1 TEMP              0 ****  ****    0 ROOT
