@<TRIPOS>MOLECULE
ZH1
   50    52     1     0     0
SMALL
bcc


@<TRIPOS>ATOM
      1 C1           5.2220     2.4960    -0.1940 ca         1 ZH1      -0.147000
      2 C2           3.8380     2.4350    -0.2300 ca         1 ZH1      -0.094000
      3 C3           0.9150     2.1510     0.4020 ca         1 ZH1      -0.084500
      4 C4           1.0370     0.0800    -0.7760 ca         1 ZH1      -0.084500
      5 C5           5.9740     1.3390    -0.0650 ca         1 ZH1      -0.074000
      6 C6          -0.4650     2.0970     0.3580 ca         1 ZH1      -0.176500
      7 C7          -0.3480     0.0050    -0.8210 ca         1 ZH1      -0.176500
      8 C8           3.9360     0.0550     0.0010 ca         1 ZH1      -0.068000
      9 C9           1.6980     1.1450    -0.1700 cp         1 ZH1      -0.071000
     10 C10          3.1710     1.2120    -0.1310 cp         1 ZH1      -0.037000
     11 C11          5.3260     0.1090     0.0320 ca         1 ZH1      -0.142600
     12 C12         -1.1090     1.0270    -0.2610 ca         1 ZH1       0.146100
     13 C13          6.0670    -1.1710     0.1810 c          1 ZH1       0.654700
     14 C14         -5.3030     0.6660     0.1890 c6         1 ZH1       0.119100
     15 C15         -5.2600    -0.7690     0.7040 c6         1 ZH1       0.123100
     16 C16         -4.6170     0.7700    -1.1710 c6         1 ZH1       0.101100
     17 C17         -3.8150    -1.2700     0.7200 c6         1 ZH1       0.149100
     18 C18         -3.2040     0.1870    -1.0660 c6         1 ZH1       0.311900
     19 C19          8.1930    -2.1630     0.3560 c3         1 ZH1       0.130700
     20 C20         -3.7370    -2.7450     1.0550 c3         1 ZH1       0.146400
     21 O21          5.5320    -2.2500     0.2720 o          1 ZH1      -0.539000
     22 O22         -3.2150    -1.1020    -0.5560 os         1 ZH1      -0.398600
     23 O23         -6.6540     1.0590     0.1380 oh         1 ZH1      -0.589800
     24 O24         -5.7530    -0.8480     2.0200 oh         1 ZH1      -0.599800
     25 O25         -5.3650     0.0370    -2.1030 oh         1 ZH1      -0.565800
     26 O26         -2.3840    -3.1210     1.1450 oh         1 ZH1      -0.587800
     27 O27         -2.4620     1.0770    -0.2650 os         1 ZH1      -0.363900
     28 O28          7.3780    -1.0010     0.2060 os         1 ZH1      -0.416900
     29 H1           5.7190     3.4530    -0.2770 ha         1 ZH1       0.135000
     30 H2           3.2710     3.3490    -0.3540 ha         1 ZH1       0.134000
     31 H3           1.3850     2.9870     0.9030 ha         1 ZH1       0.135000
     32 H4           1.6060    -0.7160    -1.2390 ha         1 ZH1       0.135000
     33 H5           7.0530     1.4050    -0.0430 ha         1 ZH1       0.148000
     34 H6          -1.0540     2.8880     0.8050 ha         1 ZH1       0.148500
     35 H7          -0.8050    -0.8560    -1.2860 ha         1 ZH1       0.148500
     36 H8           3.4430    -0.9040     0.1010 ha         1 ZH1       0.157000
     37 H14         -4.7470     1.2950     0.8980 h1         1 ZH1       0.061700
     38 H15         -5.8460    -1.4070     0.0270 h1         1 ZH1       0.069700
     39 H16         -4.5360     1.8270    -1.4620 h1         1 ZH1       0.049700
     40 H17         -3.2580    -0.7070     1.4820 h1         1 ZH1       0.072700
     41 H18         -2.7490     0.1110    -2.0620 h2         1 ZH1       0.077700
     42 H19          7.9830    -2.6770     1.2930 h1         1 ZH1       0.048700
     43 H19A         8.0560    -2.8550    -0.4740 h1         1 ZH1       0.048700
     44 H19B         9.2190    -1.8060     0.3620 h1         1 ZH1       0.048700
     45 H20         -4.2670    -2.9120     1.9980 h1         1 ZH1       0.035700
     46 H20A        -4.2690    -3.3160     0.2810 h1         1 ZH1       0.035700
     47 HO23        -6.6990     2.0190     0.1690 ho         1 ZH1       0.409000
     48 HO24        -6.6530    -0.5060     2.0180 ho         1 ZH1       0.423000
     49 HO25        -5.0520     0.2510    -2.9870 ho         1 ZH1       0.406000
     50 HO26        -2.3530    -4.0370     1.4360 ho         1 ZH1       0.404000
@<TRIPOS>BOND
     1     1     2 ar  
     2     1     5 ar  
     3     1    29 1   
     4     2    10 ar  
     5     2    30 1   
     6     3     6 ar  
     7     3     9 ar  
     8     3    31 1   
     9     4     7 ar  
    10     4     9 ar  
    11     4    32 1   
    12     5    11 ar  
    13     5    33 1   
    14     6    12 ar  
    15     6    34 1   
    16     7    12 ar  
    17     7    35 1   
    18     8    10 ar  
    19     8    11 ar  
    20     8    36 1   
    21     9    10 1   
    22    11    13 1   
    23    12    27 1   
    24    13    21 2   
    25    13    28 1   
    26    14    15 1   
    27    14    16 1   
    28    14    23 1   
    29    14    37 1   
    30    15    17 1   
    31    15    24 1   
    32    15    38 1   
    33    16    18 1   
    34    16    25 1   
    35    16    39 1   
    36    17    20 1   
    37    17    22 1   
    38    17    40 1   
    39    18    22 1   
    40    18    27 1   
    41    18    41 1   
    42    19    28 1   
    43    19    42 1   
    44    19    43 1   
    45    19    44 1   
    46    20    26 1   
    47    20    45 1   
    48    20    46 1   
    49    23    47 1   
    50    24    48 1   
    51    25    49 1   
    52    26    50 1   
@<TRIPOS>SUBSTRUCTURE
     1 ZH1         1 TEMP              0 ****  ****    0 ROOT
