@<TRIPOS>MOLECULE
ZH1
   50    52     1     0     0
SMALL
No Charge or Current Charge


@<TRIPOS>ATOM
      1 C1           5.2770     2.4550     0.2080 ca         1 ZH1      -0.129000
      2 C2           3.8780     2.4470     0.0960 ca         1 ZH1      -0.076000
      3 C3           0.8740     2.1560     0.5510 ca         1 ZH1      -0.066500
      4 C4           1.0080     0.2760    -0.9780 ca         1 ZH1      -0.066500
      5 C5           5.9950     1.2490     0.1950 ca         1 ZH1      -0.056000
      6 C6          -0.5270     2.1450     0.4370 ca         1 ZH1      -0.158500
      7 C7          -0.3930     0.2660    -1.0930 ca         1 ZH1      -0.158500
      8 C8           3.9080     0.0230    -0.0430 ca         1 ZH1      -0.050000
      9 C9           1.6710     1.2200    -0.1540 cp         1 ZH1      -0.071000
     10 C10          3.1640     1.2300    -0.0330 cp         1 ZH1      -0.037000
     11 C11          5.3170     0.0160     0.0690 ca         1 ZH1      -0.142600
     12 C12         -1.1700     1.2040    -0.3800 ca         1 ZH1       0.146100
     13 C13          6.0650    -1.2990     0.0570 c          1 ZH1       0.605700
     14 C14         -5.4270     0.6730     0.1550 c6         1 ZH1       0.142300
     15 C15         -5.2070    -0.7260     0.8110 c6         1 ZH1       0.146300
     16 C16         -4.8200     0.7100    -1.2800 c6         1 ZH1       0.124300
     17 C17         -3.6900    -1.0960     0.7760 c6         1 ZH1       0.172300
     18 C18         -3.3090     0.2890    -1.2030 c6         1 ZH1       0.358300
     19 C19          8.2320    -2.3550     0.1780 c3         1 ZH1       0.153900
     20 C20         -3.4220    -2.5390     1.3180 c3         1 ZH1       0.169600
     21 O21          5.5040    -2.3820    -0.0540 o          1 ZH1      -0.490000
     22 O22         -3.1850    -1.0170    -0.5870 os         1 ZH1      -0.445000
     23 O23         -6.8330     0.9790     0.0990 oh         1 ZH1      -0.652000
     24 O24         -5.7340    -0.7230     2.1540 oh         1 ZH1      -0.722000
     25 O25         -5.6030    -0.1560    -2.1450 oh         1 ZH1      -0.688000
     26 O26         -2.0340    -2.9310     1.2550 oh         1 ZH1      -0.710000
     27 O27         -2.5480     1.2580    -0.4490 os         1 ZH1      -0.387100
     28 O28          7.4260    -1.1620     0.1790 os         1 ZH1      -0.440100
     29 H1           5.8070     3.4000     0.3020 ha         1 ZH1       0.117000
     30 H2           3.3440     3.3940     0.0950 ha         1 ZH1       0.116000
     31 H3           1.3430     2.8890     1.2030 ha         1 ZH1       0.117000
     32 H4           1.5860    -0.4480    -1.5460 ha         1 ZH1       0.117000
     33 H5           7.0790     1.2830     0.2840 ha         1 ZH1       0.130000
     34 H6          -1.1190     2.8710     0.9890 ha         1 ZH1       0.130500
     35 H7          -0.8530    -0.4760    -1.7390 ha         1 ZH1       0.130500
     36 H8           3.3770    -0.9230    -0.1260 ha         1 ZH1       0.139000
     37 H14         -4.9080     1.4260     0.7680 h1         1 ZH1       0.061700
     38 H15         -5.7430    -1.4740     0.2070 h1         1 ZH1       0.069700
     39 H16         -4.8660     1.7450    -1.6500 h1         1 ZH1       0.049700
     40 H17         -3.1310    -0.3910     1.4080 h1         1 ZH1       0.072700
     41 H18         -2.9140     0.2460    -2.2290 h2         1 ZH1       0.077700
     42 H19          7.9580    -3.0140     1.0120 h1         1 ZH1       0.048700
     43 H19A         8.1080    -2.9110    -0.7610 h1         1 ZH1       0.048700
     44 H19B         9.2940    -2.0990     0.2820 h1         1 ZH1       0.048700
     45 H20         -3.7730    -2.5860     2.3580 h1         1 ZH1       0.035700
     46 H20A        -4.0370    -3.2400     0.7370 h1         1 ZH1       0.035700
     47 HO23        -7.1250     0.6180    -0.7710 ho         1 ZH1       0.448000
     48 HO24        -6.5670    -0.1930     2.1010 ho         1 ZH1       0.522000
     49 HO25        -5.2490    -0.0650    -3.0610 ho         1 ZH1       0.505000
     50 HO26        -1.9860    -3.8680     1.5550 ho         1 ZH1       0.503000
@<TRIPOS>BOND
     1     1     2 ar  
     2     1     5 ar  
     3     1    29 1   
     4     2    10 ar  
     5     2    30 1   
     6     3     6 ar  
     7     3     9 ar  
     8     3    31 1   
     9     4     7 ar  
    10     4     9 ar  
    11     4    32 1   
    12     5    11 ar  
    13     5    33 1   
    14     6    12 ar  
    15     6    34 1   
    16     7    12 ar  
    17     7    35 1   
    18     8    10 ar  
    19     8    11 ar  
    20     8    36 1   
    21     9    10 1   
    22    11    13 1   
    23    12    27 1   
    24    13    21 2   
    25    13    28 1   
    26    14    15 1   
    27    14    16 1   
    28    14    23 1   
    29    14    37 1   
    30    15    17 1   
    31    15    24 1   
    32    15    38 1   
    33    16    18 1   
    34    16    25 1   
    35    16    39 1   
    36    17    20 1   
    37    17    22 1   
    38    17    40 1   
    39    18    22 1   
    40    18    27 1   
    41    18    41 1   
    42    19    28 1   
    43    19    42 1   
    44    19    43 1   
    45    19    44 1   
    46    20    26 1   
    47    20    45 1   
    48    20    46 1   
    49    23    47 1   
    50    24    48 1   
    51    25    49 1   
    52    26    50 1   
@<TRIPOS>SUBSTRUCTURE
     1 ZH1         1 TEMP              0 ****  ****    0 ROOT
