@<TRIPOS>MOLECULE
ZH5
   44    47     1     0     0
SMALL
abcg2


@<TRIPOS>ATOM
      1 C10         -2.5950   -19.4240    24.4860 ca         1 ZH5       0.216900
      2 C13         -1.1290   -21.2740    21.7050 cc         1 ZH5       0.246200
      3 C15          1.5780   -20.8620    21.9640 ca         1 ZH5      -0.096000
      4 C17          2.5510   -21.7540    23.9920 ca         1 ZH5      -0.098000
      5 C20          2.8230   -20.3050    21.6570 ca         1 ZH5       0.127000
      6 C24         -2.8840   -21.6160    23.0630 ca         1 ZH5       0.393500
      7 C01         -7.6400   -19.0620    27.5170 c3         1 ZH5      -0.082100
      8 C02         -7.1380   -18.9070    26.0790 c6         1 ZH5       0.172200
      9 C04         -5.8060   -18.1240    26.0490 c6         1 ZH5      -0.116900
     10 C05         -4.6200   -18.9410    26.5640 c6         1 ZH5       0.218300
     11 C07         -5.7030   -21.0210    25.9570 c6         1 ZH5       0.218300
     12 C08         -6.9260   -20.2790    25.4160 c6         1 ZH5      -0.116900
     13 C09         -3.6550   -20.3750    24.7720 ca         1 ZH5       0.613900
     14 C12         -1.8450   -20.7090    22.7970 ca         1 ZH5       0.116700
     15 C16          1.4620   -21.5960    23.1460 ca         1 ZH5      -0.097000
     16 C18          3.7800   -21.1860    23.6730 ca         1 ZH5      -0.109000
     17 C19          3.9160   -20.4600    22.4970 ca         1 ZH5      -0.092000
     18 N03         -8.1960   -18.2100    25.3250 n8         1 ZH5      -0.993200
     19 N06         -4.5040   -20.1910    25.8130 nh         1 ZH5      -0.768300
     20 N11         -1.7150   -19.5860    23.5290 nb         1 ZH5      -0.528000
     21 N22         -1.6840   -22.4210    21.3350 nd         1 ZH5      -0.460100
     22 N23         -2.7500   -22.6170    22.1570 na         1 ZH5      -0.171100
     23 N25         -3.7960   -21.4770    24.0190 nb         1 ZH5      -0.755000
     24 S14          0.2350   -20.6150    20.8220 ss         1 ZH5       0.057800
     25 CL21         3.0240   -19.3920    20.1770 cl         1 ZH5      -0.200000
     26 H101        -2.5040   -18.5220    25.0730 h4         1 ZH5       0.031100
     27 H171         2.4340   -22.3250    24.9040 ha         1 ZH5       0.116000
     28 H013        -6.9110   -19.5600    28.1560 hc         1 ZH5       0.040367
     29 H012        -7.8450   -18.0790    27.9490 hc         1 ZH5       0.040367
     30 H011        -8.5620   -19.6440    27.5320 hc         1 ZH5       0.040367
     31 H041        -5.6000   -17.8250    25.0170 hc         1 ZH5       0.056200
     32 H042        -5.9060   -17.2100    26.6410 hc         1 ZH5       0.056200
     33 H051        -3.7010   -18.3690    26.5140 h1         1 ZH5       0.064950
     34 H052        -4.7650   -19.2090    27.6120 h1         1 ZH5       0.064950
     35 H072        -5.8220   -21.2420    27.0190 h1         1 ZH5       0.064950
     36 H071        -5.5540   -21.9570    25.4320 h1         1 ZH5       0.064950
     37 H082        -7.8190   -20.8920    25.5550 hc         1 ZH5       0.056200
     38 H081        -6.7930   -20.1340    24.3390 hc         1 ZH5       0.056200
     39 H161         0.5150   -22.0470    23.4040 ha         1 ZH5       0.124000
     40 H181         4.6300   -21.3070    24.3310 ha         1 ZH5       0.118000
     41 H191         4.8630   -20.0140    22.2250 ha         1 ZH5       0.128000
     42 H1          -8.3560   -17.2940    25.7360 hn         1 ZH5       0.395000
     43 H032        -7.8770   -18.0380    24.3750 hn         1 ZH5       0.395000
     44 H231        -3.3260   -23.4370    22.0420 hn         1 ZH5       0.388000
@<TRIPOS>BOND
     1     1    13 ar  
     2     1    20 ar  
     3     1    26 1   
     4     2    14 1   
     5     2    21 2   
     6     2    24 1   
     7     3     5 ar  
     8     3    15 ar  
     9     3    24 1   
    10     4    15 ar  
    11     4    16 ar  
    12     4    27 1   
    13     5    17 ar  
    14     5    25 1   
    15     6    14 ar  
    16     6    22 1   
    17     6    23 ar  
    18     7     8 1   
    19     7    28 1   
    20     7    29 1   
    21     7    30 1   
    22     8     9 1   
    23     8    12 1   
    24     8    18 1   
    25     9    10 1   
    26     9    31 1   
    27     9    32 1   
    28    10    19 1   
    29    10    33 1   
    30    10    34 1   
    31    11    12 1   
    32    11    19 1   
    33    11    35 1   
    34    11    36 1   
    35    12    37 1   
    36    12    38 1   
    37    13    19 1   
    38    13    23 ar  
    39    14    20 ar  
    40    15    39 1   
    41    16    17 ar  
    42    16    40 1   
    43    17    41 1   
    44    18    42 1   
    45    18    43 1   
    46    21    22 1   
    47    22    44 1   
@<TRIPOS>SUBSTRUCTURE
     1 ZH5         1 TEMP              0 ****  ****    0 ROOT
