@<TRIPOS>MOLECULE
ZH5
   44    47     1     0     0
SMALL
No Charge or Current Charge


@<TRIPOS>ATOM
      1 C10         -2.5800   -19.5030    23.4560 ca         1 ZH5       0.216900
      2 C13         -0.8660   -22.2160    21.6670 cc         1 ZH5       0.246200
      3 C15          1.4490   -21.2690    22.1110 ca         1 ZH5      -0.096000
      4 C17          2.4240   -21.8330    24.2780 ca         1 ZH5      -0.098000
      5 C20          1.9880   -19.9690    22.2190 ca         1 ZH5       0.127000
      6 C24         -2.7200   -22.1290    22.9190 ca         1 ZH5       0.393500
      7 C01         -6.8060   -19.4430    27.8340 c3         1 ZH5      -0.082100
      8 C02         -6.8640   -18.6870    26.4710 c6         1 ZH5       0.172200
      9 C04         -5.5500   -17.9170    26.1780 c6         1 ZH5      -0.116900
     10 C05         -4.3640   -18.8720    25.8970 c6         1 ZH5       0.218300
     11 C07         -5.9510   -20.5940    25.0030 c6         1 ZH5       0.218300
     12 C08         -7.1430   -19.6480    25.2880 c6         1 ZH5      -0.116900
     13 C09         -3.6440   -20.3270    23.9750 ca         1 ZH5       0.613900
     14 C12         -1.7020   -21.3260    22.4380 ca         1 ZH5       0.116700
     15 C16          1.6800   -22.2010    23.1440 ca         1 ZH5      -0.097000
     16 C18          2.9480   -20.5340    24.3860 ca         1 ZH5      -0.109000
     17 C19          2.7320   -19.6040    23.3550 ca         1 ZH5      -0.092000
     18 N03         -7.9660   -17.7170    26.5600 n8         1 ZH5      -0.993200
     19 N06         -4.6860   -19.8240    24.7950 nh         1 ZH5      -0.768300
     20 N11         -1.5790   -19.9940    22.6670 nb         1 ZH5      -0.528000
     21 N22         -1.3230   -23.4720    21.6070 nd         1 ZH5      -0.460100
     22 N23         -2.4670   -23.3950    22.4190 na         1 ZH5      -0.171100
     23 N25         -3.7210   -21.6590    23.6980 nb         1 ZH5      -0.755000
     24 S14          0.4980   -21.7390    20.6580 ss         1 ZH5       0.057800
     25 Cl21         1.7390   -18.7750    20.9460 cl         1 ZH5      -0.200000
     26 H101        -2.5420   -18.4360    23.6680 h4         1 ZH5       0.031100
     27 H171         2.5970   -22.5560    25.0730 ha         1 ZH5       0.116000
     28 H013        -6.0120   -20.1980    27.8590 hc         1 ZH5       0.040367
     29 H012        -6.6210   -18.7520    28.6650 hc         1 ZH5       0.040367
     30 H011        -7.7500   -19.9610    28.0420 hc         1 ZH5       0.040367
     31 H041        -5.6830   -17.2630    25.3050 hc         1 ZH5       0.056200
     32 H042        -5.2950   -17.2600    27.0210 hc         1 ZH5       0.056200
     33 H051        -3.4850   -18.2590    25.6520 h1         1 ZH5       0.064950
     34 H052        -4.1110   -19.4280    26.8120 h1         1 ZH5       0.064950
     35 H072        -5.8310   -21.3080    25.8310 h1         1 ZH5       0.064950
     36 H071        -6.2040   -21.1810    24.1070 h1         1 ZH5       0.064950
     37 H082        -8.0420   -20.2480    25.4850 hc         1 ZH5       0.056200
     38 H081        -7.3520   -19.0700    24.3770 hc         1 ZH5       0.056200
     39 H161         1.2900   -23.2140    23.0690 ha         1 ZH5       0.124000
     40 H181         3.5250   -20.2500    25.2640 ha         1 ZH5       0.118000
     41 H191         3.1400   -18.6000    23.4340 ha         1 ZH5       0.128000
     42 H1          -7.5970   -16.7830    26.3560 hn         1 ZH5       0.395000
     43 H032        -8.6170   -17.8910    25.7880 hn         1 ZH5       0.395000
     44 H231        -3.0540   -24.2060    22.5900 hn         1 ZH5       0.388000
@<TRIPOS>BOND
     1     1    13 ar  
     2     1    20 ar  
     3     1    26 1   
     4     2    14 1   
     5     2    21 2   
     6     2    24 1   
     7     3     5 ar  
     8     3    15 ar  
     9     3    24 1   
    10     4    15 ar  
    11     4    16 ar  
    12     4    27 1   
    13     5    17 ar  
    14     5    25 1   
    15     6    14 ar  
    16     6    22 1   
    17     6    23 ar  
    18     7     8 1   
    19     7    28 1   
    20     7    29 1   
    21     7    30 1   
    22     8     9 1   
    23     8    12 1   
    24     8    18 1   
    25     9    10 1   
    26     9    31 1   
    27     9    32 1   
    28    10    19 1   
    29    10    33 1   
    30    10    34 1   
    31    11    12 1   
    32    11    19 1   
    33    11    35 1   
    34    11    36 1   
    35    12    37 1   
    36    12    38 1   
    37    13    19 1   
    38    13    23 ar  
    39    14    20 ar  
    40    15    39 1   
    41    16    17 ar  
    42    16    40 1   
    43    17    41 1   
    44    18    42 1   
    45    18    43 1   
    46    21    22 1   
    47    22    44 1   
@<TRIPOS>SUBSTRUCTURE
     1 ZH5         1 TEMP              0 ****  ****    0 ROOT
