@<TRIPOS>MOLECULE
ZH7
  175   179     1     0     0
SMALL
No Charge or Current Charge


@<TRIPOS>ATOM
      1 C10        172.3790   152.6360   157.3840 c3         1 ZH7       0.148900
      2 C17        170.2900   158.0610   162.1230 c3         1 ZH7       0.164300
      3 C21        171.7350   162.2350   162.4590 c3         1 ZH7       0.142900
      4 C22        169.7940   161.5010   160.2050 c3         1 ZH7       0.150300
      5 C24        168.4220   162.1160   160.6010 c3         1 ZH7      -0.062400
      6 C26        167.5420   162.6530   158.2400 c2         1 ZH7      -0.182200
      7 C28        169.5720   163.5240   156.9810 c3         1 ZH7      -0.047900
      8 C02        177.1520   154.7970   162.7190 c6         1 ZH7       0.168000
      9 C03        176.4970   153.6550   163.5580 c3         1 ZH7      -0.109100
     10 C04        176.1060   155.8570   162.2590 c6         1 ZH7      -0.129400
     11 C05        175.1980   155.3860   161.0970 c6         1 ZH7       0.390300
     12 C07        173.0670   154.1470   160.7660 c3         1 ZH7       0.179300
     13 C08        173.4130   153.5090   159.3890 c3         1 ZH7       0.133600
     14 C11        172.1810   153.2470   161.6610 c3         1 ZH7      -0.070400
     15 C12        171.6730   153.9580   162.9540 c6         1 ZH7       0.196300
     16 C14        170.0880   155.7710   163.4690 c6         1 ZH7       0.426000
     17 C16        169.3450   156.9660   162.7220 c3         1 ZH7       0.161300
     18 C18        169.5170   159.3280   161.6580 c3         1 ZH7      -0.098400
     19 C19        170.4180   160.5360   161.2780 c3         1 ZH7       0.139300
     20 C25        167.8740   163.1950   159.6250 c3         1 ZH7      -0.034200
     21 C27        168.2430   162.7780   157.0840 ce         1 ZH7      -0.081200
     22 C29        167.7690   162.0730   155.8760 ce         1 ZH7      -0.160000
     23 C30        168.3430   162.1060   154.6490 c2         1 ZH7      -0.257200
     24 C31        167.9150   161.2590   153.4620 c3         1 ZH7       0.211500
     25 C33        166.7350   163.0700   152.3090 c6         1 ZH7       0.357300
     26 C34        166.8630   164.0360   151.0880 c6         1 ZH7       0.114300
     27 C36        166.6110   163.2680   149.7560 c6         1 ZH7       0.159300
     28 C38        165.2450   162.4940   149.8060 c6         1 ZH7       0.145300
     29 C41        165.2260   161.5980   151.0820 c6         1 ZH7       0.161300
     30 C42        163.8680   160.8850   151.3000 c3         1 ZH7      -0.086100
     31 C44        168.9540   160.1420   153.1490 c3         1 ZH7      -0.021500
     32 C45        168.4470   159.1440   152.0860 c3         1 ZH7      -0.079100
     33 C46        169.3590   159.4200   154.4300 c2         1 ZH7      -0.199200
     34 C47        170.5480   158.8680   154.7750 ce         1 ZH7      -0.077200
     35 C48        171.7630   158.8410   153.8560 c3         1 ZH7      -0.051900
     36 C49        170.7150   158.4660   156.1860 ce         1 ZH7      -0.154000
     37 C50        171.6170   157.6460   156.8040 cf         1 ZH7      -0.085200
     38 C51        172.6480   156.7800   156.0940 c3         1 ZH7      -0.048900
     39 C52        171.5170   157.5240   158.2560 cf         1 ZH7      -0.097000
     40 C53        172.5190   157.6860   159.1810 ce         1 ZH7      -0.183400
     41 C54        173.9580   157.9900   158.7610 c3         1 ZH7      -0.052900
     42 C55        172.2170   157.7550   160.6620 c          1 ZH7       0.600300
     43 C59        169.0590   154.8120   164.1910 c6         1 ZH7      -0.155700
     44 C60        168.8630   155.1080   165.7140 c3         1 ZH7      -0.099100
     45 C61        169.3730   153.3060   163.9310 c6         1 ZH7       0.190300
     46 C63        170.9030   153.0470   163.9790 c6         1 ZH7      -0.080700
     47 C64        171.2610   151.5300   163.9400 c3         1 ZH7      -0.079100
     48 C66        176.8780   153.7850   160.3650 c6         1 ZH7       0.173300
     49 C67        177.5560   153.3390   159.0460 c3         1 ZH7      -0.084100
     50 C68        177.9030   154.2300   161.4500 c6         1 ZH7       0.157300
     51 C70        180.1120   153.5090   162.2330 c6         1 ZH7       0.400300
     52 C71        180.8200   152.2640   162.8090 c6         1 ZH7      -0.132400
     53 C72        182.2700   152.6270   163.2220 c6         1 ZH7       0.129300
     54 C75        183.0250   153.2610   162.0190 c6         1 ZH7       0.140300
     55 C77        182.1980   154.4650   161.4670 c6         1 ZH7       0.188300
     56 C78        182.8080   155.0840   160.1850 c3         1 ZH7      -0.081100
     57 O01        178.0670   155.4570   163.6060 oh         1 ZH7      -0.732000
     58 O06        174.2700   154.3800   161.5360 os         1 ZH7      -0.498000
     59 O09        172.1910   153.1960   158.6930 os         1 ZH7      -0.447000
     60 O13        170.8110   155.0220   162.4710 os         1 ZH7      -0.416000
     61 O15        171.0420   156.2990   164.3940 oh         1 ZH7      -0.682000
     62 O20        170.6930   161.2410   162.5100 os         1 ZH7      -0.460000
     63 O23        169.6560   160.7960   158.9640 oh         1 ZH7      -0.710000
     64 O32        167.8160   162.1150   152.3130 os         1 ZH7      -0.464000
     65 O35        168.1620   164.6760   151.0380 oh         1 ZH7      -0.708000
     66 O37        166.7030   164.2150   148.6730 oh         1 ZH7      -0.721000
     67 O39        164.9910   161.6690   148.6320 os         1 ZH7      -0.448000
     68 O43        165.4650   162.3840   152.2720 os         1 ZH7      -0.476000
     69 O56        170.8930   157.5140   160.9260 os         1 ZH7      -0.428100
     70 O57        173.0410   158.0340   161.5220 o          1 ZH7      -0.507000
     71 O58        168.4750   156.4930   161.6650 oh         1 ZH7      -0.682000
     72 O62        168.8350   152.9110   162.6670 oh         1 ZH7      -0.640000
     73 O65        176.0060   154.8840   160.0170 os         1 ZH7      -0.483000
     74 O69        178.8110   153.1360   161.7580 os         1 ZH7      -0.438000
     75 O73        183.0150   151.4890   163.7180 os         1 ZH7      -0.463000
     76 O76        184.3600   153.6310   162.4140 oh         1 ZH7      -0.718000
     77 O79        180.8700   154.0180   161.1190 os         1 ZH7      -0.491000
     78 H103       171.4090   152.4250   156.9180 h1         1 ZH7       0.026367
     79 H102       172.9250   153.3350   156.7370 h1         1 ZH7       0.026367
     80 H101       172.9450   151.6970   157.4400 h1         1 ZH7       0.026367
     81 H171       171.0320   158.3470   162.8810 h1         1 ZH7       0.088700
     82 H211       171.9440   162.6160   163.4670 h1         1 ZH7       0.032367
     83 H212       172.6640   161.8070   162.0590 h1         1 ZH7       0.032367
     84 H213       171.4440   163.0890   161.8340 h1         1 ZH7       0.032367
     85 H221       170.4940   162.3310   160.0490 h1         1 ZH7       0.028700
     86 H241       168.5200   162.5770   161.5910 hc         1 ZH7       0.051700
     87 H242       167.6760   161.3200   160.7040 hc         1 ZH7       0.051700
     88 H261       166.6110   162.0820   158.2370 ha         1 ZH7       0.163000
     89 H283       170.0160   163.7520   157.9550 hc         1 ZH7       0.039033
     90 H282       170.3230   162.9340   156.4430 hc         1 ZH7       0.039033
     91 H281       169.4470   164.4740   156.4480 hc         1 ZH7       0.039033
     92 H031       175.8840   154.0550   164.3740 hc         1 ZH7       0.046367
     93 H032       175.8530   153.0050   162.9570 hc         1 ZH7       0.046367
     94 H033       177.2590   153.0090   164.0100 hc         1 ZH7       0.046367
     95 H041       176.6290   156.7630   161.9250 hc         1 ZH7       0.066200
     96 H042       175.4760   156.1700   163.1020 hc         1 ZH7       0.066200
     97 H051       174.6300   156.2570   160.7420 h2         1 ZH7       0.086700
     98 H071       172.5380   155.0890   160.5780 h1         1 ZH7       0.064700
     99 H081       174.0140   152.6030   159.5440 h1         1 ZH7       0.030700
    100 H082       173.9980   154.2190   158.7920 h1         1 ZH7       0.030700
    101 H111       171.3210   152.8870   161.0860 hc         1 ZH7       0.074700
    102 H112       172.7750   152.3620   161.9130 hc         1 ZH7       0.074700
    103 H121       172.5430   154.4000   163.4630 h1         1 ZH7       0.048700
    104 H161       168.7290   157.4580   163.4870 h1         1 ZH7       0.025700
    105 H181       168.8950   159.0530   160.7980 hc         1 ZH7       0.067700
    106 H182       168.8190   159.6380   162.4450 hc         1 ZH7       0.067700
    107 H191       171.3560   160.1610   160.8520 h1         1 ZH7       0.038700
    108 H252       168.5740   164.0370   159.5800 hc         1 ZH7       0.043700
    109 H251       166.9590   163.6100   160.0660 hc         1 ZH7       0.043700
    110 H291       166.8940   161.4360   156.0190 ha         1 ZH7       0.165000
    111 H301       169.2230   162.7140   154.4440 ha         1 ZH7       0.185000
    112 H311       166.9480   160.7840   153.6780 h1         1 ZH7       0.046700
    113 H331       166.7860   163.6740   153.2290 h2         1 ZH7       0.070700
    114 H341       166.0810   164.8020   151.1940 h1         1 ZH7       0.050700
    115 H361       167.4050   162.5130   149.6510 h1         1 ZH7       0.071700
    116 H381       164.4280   163.2260   149.8940 h1         1 ZH7       0.053700
    117 H402       164.3140   161.5980   146.6580 h1         1 ZH7       0.031700
    118 H401       163.9720   163.1200   147.5060 h1         1 ZH7       0.031700
    119 H403       165.6250   162.7490   146.9410 h1         1 ZH7       0.031700
    120 H411       166.0080   160.8280   150.9990 h1         1 ZH7       0.062700
    121 H423       163.8800   160.2920   152.2220 hc         1 ZH7       0.045367
    122 H421       163.0460   161.6070   151.3720 hc         1 ZH7       0.045367
    123 H422       163.6420   160.2000   150.4730 hc         1 ZH7       0.045367
    124 H441       169.8290   160.6530   152.7320 hc         1 ZH7       0.068700
    125 H453       169.2110   158.3850   151.8770 hc         1 ZH7       0.039033
    126 H451       167.5410   158.6330   152.4330 hc         1 ZH7       0.039033
    127 H452       168.2150   159.6580   151.1460 hc         1 ZH7       0.039033
    128 H461       168.5570   159.4190   155.1700 ha         1 ZH7       0.171000
    129 H482       172.6880   159.0420   154.4080 hc         1 ZH7       0.041367
    130 H481       171.8650   157.8660   153.3650 hc         1 ZH7       0.041367
    131 H483       171.7150   159.5940   153.0640 hc         1 ZH7       0.041367
    132 H491       170.0060   158.9560   156.8550 ha         1 ZH7       0.175000
    133 H511       172.9790   155.9520   156.7320 hc         1 ZH7       0.043367
    134 H512       172.2350   156.3300   155.1850 hc         1 ZH7       0.043367
    135 H513       173.5380   157.3550   155.8160 hc         1 ZH7       0.043367
    136 H521       170.4920   157.4140   158.6130 ha         1 ZH7       0.200000
    137 H541       174.5340   158.4930   159.5460 hc         1 ZH7       0.051367
    138 H542       174.4950   157.0710   158.4990 hc         1 ZH7       0.051367
    139 H543       173.9880   158.6530   157.8880 hc         1 ZH7       0.051367
    140 H591       168.0610   154.9990   163.7720 hc         1 ZH7       0.066700
    141 H601       168.0520   154.4970   166.1270 hc         1 ZH7       0.038033
    142 H602       169.7640   154.8830   166.2980 hc         1 ZH7       0.038033
    143 H603       168.5930   156.1570   165.8870 hc         1 ZH7       0.038033
    144 H611       168.8920   152.7070   164.7180 h1         1 ZH7       0.026700
    145 H631       171.2380   153.3640   164.9760 hc         1 ZH7       0.052700
    146 H643       170.7580   150.9900   164.7500 hc         1 ZH7       0.038033
    147 H641       170.9550   151.0610   162.9970 hc         1 ZH7       0.038033
    148 H642       172.3390   151.3730   164.0650 hc         1 ZH7       0.038033
    149 H661       176.2720   152.9470   160.7370 h1         1 ZH7       0.053700
    150 H673       178.1880   152.4570   159.2050 hc         1 ZH7       0.047033
    151 H671       176.8080   153.0760   158.2900 hc         1 ZH7       0.047033
    152 H672       178.1880   154.1350   158.6350 hc         1 ZH7       0.047033
    153 H681       178.4880   155.0500   161.0090 h1         1 ZH7       0.067700
    154 H701       180.0410   154.2750   163.0170 h2         1 ZH7       0.040700
    155 H712       180.2500   151.9040   163.6740 hc         1 ZH7       0.069700
    156 H711       180.8260   151.4590   162.0630 hc         1 ZH7       0.069700
    157 H721       182.2210   153.3760   164.0270 h1         1 ZH7       0.043700
    158 H743       183.2510   150.0840   165.2480 h1         1 ZH7       0.031033
    159 H742       182.4590   151.5960   165.7390 h1         1 ZH7       0.031033
    160 H741       181.5690   150.3880   164.7770 h1         1 ZH7       0.031033
    161 H751       183.0780   152.5030   161.2230 h1         1 ZH7       0.056700
    162 H771       182.1200   155.2490   162.2350 h1         1 ZH7       0.040700
    163 H782       183.8030   155.5000   160.3810 hc         1 ZH7       0.048033
    164 H783       182.9070   154.3350   159.3900 hc         1 ZH7       0.048033
    165 H781       182.1790   155.8980   159.8060 hc         1 ZH7       0.048033
    166 H011       177.5480   155.7380   164.3930 ho         1 ZH7       0.504000
    167 H151       170.5310   156.5470   165.1900 ho         1 ZH7       0.455000
    168 H231       169.1270   161.3850   158.3770 ho         1 ZH7       0.505000
    169 H351       168.8060   164.0100   151.3820 ho         1 ZH7       0.508000
    170 H371       167.3980   164.8520   148.9690 ho         1 ZH7       0.518000
    171 H581       169.0740   156.3720   160.8930 ho         1 ZH7       0.496000
    172 H621       169.1990   153.5560   162.0230 ho         1 ZH7       0.439000
    173 H761       184.6690   152.8900   162.9890 ho         1 ZH7       0.519000
    174 C40        164.7150   162.3220   147.3790 c3         1 ZH7       0.151900
    175 C74        182.5470   150.8620   164.9280 c3         1 ZH7       0.148900
@<TRIPOS>BOND
     1     1    59 1   
     2     1    78 1   
     3     1    79 1   
     4     1    80 1   
     5     2    17 1   
     6     2    18 1   
     7     2    69 1   
     8     2    81 1   
     9     3    62 1   
    10     3    82 1   
    11     3    83 1   
    12     3    84 1   
    13     4     5 1   
    14     4    19 1   
    15     4    63 1   
    16     4    85 1   
    17     5    20 1   
    18     5    86 1   
    19     5    87 1   
    20     6    20 1   
    21     6    21 2   
    22     6    88 1   
    23     7    21 1   
    24     7    89 1   
    25     7    90 1   
    26     7    91 1   
    27     8     9 1   
    28     8    10 1   
    29     8    50 1   
    30     8    57 1   
    31     9    92 1   
    32     9    93 1   
    33     9    94 1   
    34    10    11 1   
    35    10    95 1   
    36    10    96 1   
    37    11    58 1   
    38    11    73 1   
    39    11    97 1   
    40    12    13 1   
    41    12    14 1   
    42    12    58 1   
    43    12    98 1   
    44    13    59 1   
    45    13    99 1   
    46    13   100 1   
    47    14    15 1   
    48    14   101 1   
    49    14   102 1   
    50    15    46 1   
    51    15    60 1   
    52    15   103 1   
    53    16    17 1   
    54    16    43 1   
    55    16    60 1   
    56    16    61 1   
    57    17    71 1   
    58    17   104 1   
    59    18    19 1   
    60    18   105 1   
    61    18   106 1   
    62    19    62 1   
    63    19   107 1   
    64    20   108 1   
    65    20   109 1   
    66    21    22 1   
    67    22    23 2   
    68    22   110 1   
    69    23    24 1   
    70    23   111 1   
    71    24    31 1   
    72    24    64 1   
    73    24   112 1   
    74    25    26 1   
    75    25    64 1   
    76    25    68 1   
    77    25   113 1   
    78    26    27 1   
    79    26    65 1   
    80    26   114 1   
    81    27    28 1   
    82    27    66 1   
    83    27   115 1   
    84    28    29 1   
    85    28    67 1   
    86    28   116 1   
    87    29    30 1   
    88    29    68 1   
    89    29   120 1   
    90    30   121 1   
    91    30   122 1   
    92    30   123 1   
    93    31    32 1   
    94    31    33 1   
    95    31   124 1   
    96    32   125 1   
    97    32   126 1   
    98    32   127 1   
    99    33    34 2   
   100    33   128 1   
   101    34    35 1   
   102    34    36 1   
   103    35   129 1   
   104    35   130 1   
   105    35   131 1   
   106    36    37 2   
   107    36   132 1   
   108    37    38 1   
   109    37    39 1   
   110    38   133 1   
   111    38   134 1   
   112    38   135 1   
   113    39    40 2   
   114    39   136 1   
   115    40    41 1   
   116    40    42 1   
   117    41   137 1   
   118    41   138 1   
   119    41   139 1   
   120    42    69 1   
   121    42    70 2   
   122    43    44 1   
   123    43    45 1   
   124    43   140 1   
   125    44   141 1   
   126    44   142 1   
   127    44   143 1   
   128    45    46 1   
   129    45    72 1   
   130    45   144 1   
   131    46    47 1   
   132    46   145 1   
   133    47   146 1   
   134    47   147 1   
   135    47   148 1   
   136    48    49 1   
   137    48    50 1   
   138    48    73 1   
   139    48   149 1   
   140    49   150 1   
   141    49   151 1   
   142    49   152 1   
   143    50    74 1   
   144    50   153 1   
   145    51    52 1   
   146    51    74 1   
   147    51    77 1   
   148    51   154 1   
   149    52    53 1   
   150    52   155 1   
   151    52   156 1   
   152    53    54 1   
   153    53    75 1   
   154    53   157 1   
   155    54    55 1   
   156    54    76 1   
   157    54   161 1   
   158    55    56 1   
   159    55    77 1   
   160    55   162 1   
   161    56   163 1   
   162    56   164 1   
   163    56   165 1   
   164    57   166 1   
   165    61   167 1   
   166    63   168 1   
   167    65   169 1   
   168    66   170 1   
   169    67   174 1   
   170    71   171 1   
   171    72   172 1   
   172    75   175 1   
   173    76   173 1   
   174   117   174 1   
   175   118   174 1   
   176   119   174 1   
   177   158   175 1   
   178   159   175 1   
   179   160   175 1   
@<TRIPOS>SUBSTRUCTURE
     1 ZH7         1 TEMP              0 ****  ****    0 ROOT
