@<TRIPOS>MOLECULE
ZH7
  175   179     1     0     0
SMALL
abcg2


@<TRIPOS>ATOM
      1 C10        172.1670   153.8480   157.0110 c3         1 ZH7       0.148900
      2 C17        170.2940   158.4880   162.2760 c3         1 ZH7       0.164300
      3 C21        171.5710   162.4750   163.1760 c3         1 ZH7       0.142900
      4 C22        170.0170   161.8590   160.5330 c3         1 ZH7       0.150300
      5 C24        168.5970   162.3920   160.6150 c3         1 ZH7      -0.062400
      6 C26        167.8780   162.6810   158.1990 c2         1 ZH7      -0.182200
      7 C28        169.6070   163.7170   156.6960 c3         1 ZH7      -0.047900
      8 C02        176.8340   153.8610   162.8690 c6         1 ZH7       0.168000
      9 C03        176.2430   152.4530   162.8760 c3         1 ZH7      -0.109100
     10 C04        175.7600   154.9550   162.8500 c6         1 ZH7      -0.129400
     11 C05        175.0590   155.1350   161.5130 c6         1 ZH7       0.390300
     12 C07        172.9910   154.3700   160.5430 c3         1 ZH7       0.179300
     13 C08        173.2010   153.8970   159.1090 c3         1 ZH7       0.133600
     14 C11        171.8280   153.6700   161.2350 c3         1 ZH7      -0.070400
     15 C12        171.4860   154.3200   162.5740 c6         1 ZH7       0.196300
     16 C14        170.0150   156.0940   163.2610 c6         1 ZH7       0.426000
     17 C16        169.3420   157.3610   162.6820 c3         1 ZH7       0.161300
     18 C18        169.5240   159.7570   161.9140 c3         1 ZH7      -0.098400
     19 C19        170.4210   160.9830   161.7370 c3         1 ZH7       0.139300
     20 C25        168.2200   163.3600   159.4840 c3         1 ZH7      -0.034200
     21 C27        168.4430   162.8200   156.9900 ce         1 ZH7      -0.081200
     22 C29        167.9490   161.9760   155.9040 ce         1 ZH7      -0.160000
     23 C30        168.4780   161.8630   154.6820 c2         1 ZH7      -0.257200
     24 C31        168.0150   160.8520   153.6780 c3         1 ZH7       0.211500
     25 C33        166.5070   162.1840   152.4100 c6         1 ZH7       0.357300
     26 C34        166.6130   163.2830   151.3510 c6         1 ZH7       0.114300
     27 C36        166.6850   162.6770   149.9550 c6         1 ZH7       0.159300
     28 C38        165.4940   161.7500   149.7490 c6         1 ZH7       0.145300
     29 C41        165.4160   160.7160   150.8780 c6         1 ZH7       0.161300
     30 C42        164.1600   159.8750   150.7960 c3         1 ZH7      -0.086100
     31 C44        169.1170   159.8160   153.4010 c3         1 ZH7      -0.021500
     32 C45        168.6340   158.6900   152.4830 c3         1 ZH7      -0.079100
     33 C46        169.5900   159.2730   154.7140 c2         1 ZH7      -0.199200
     34 C47        170.8370   158.9030   155.0640 ce         1 ZH7      -0.077200
     35 C48        171.9950   158.9580   154.1090 c3         1 ZH7      -0.051900
     36 C49        171.0200   158.5360   156.4630 ce         1 ZH7      -0.154000
     37 C50        172.0950   158.0860   157.1550 cf         1 ZH7      -0.085200
     38 C51        173.3800   157.5940   156.5460 c3         1 ZH7      -0.048900
     39 C52        171.9070   158.0840   158.6010 cf         1 ZH7      -0.097000
     40 C53        172.8140   158.1500   159.5990 ce         1 ZH7      -0.183400
     41 C54        174.3000   158.2730   159.4250 c3         1 ZH7      -0.052900
     42 C55        172.3200   158.2070   160.9990 c          1 ZH7       0.600300
     43 C59        168.9140   155.1330   163.8060 c6         1 ZH7      -0.155700
     44 C60        168.6200   155.3370   165.2890 c3         1 ZH7      -0.099100
     45 C61        169.2480   153.6580   163.5180 c6         1 ZH7       0.190300
     46 C63        170.7480   153.4420   163.6050 c6         1 ZH7      -0.080700
     47 C64        171.1440   151.9720   163.5740 c3         1 ZH7      -0.079100
     48 C66        176.9420   154.2020   160.3630 c6         1 ZH7       0.173300
     49 C67        177.8000   154.5140   159.1540 c3         1 ZH7      -0.084100
     50 C68        177.7500   154.1100   161.6630 c6         1 ZH7       0.157300
     51 C70        179.9840   153.3500   161.9760 c6         1 ZH7       0.400300
     52 C71        180.6980   152.0480   162.2910 c6         1 ZH7      -0.132400
     53 C72        182.1370   152.3610   162.6860 c6         1 ZH7       0.129300
     54 C75        182.8120   153.1910   161.6000 c6         1 ZH7       0.140300
     55 C77        181.9680   154.4350   161.3060 c6         1 ZH7       0.188300
     56 C78        182.5230   155.2720   160.1720 c3         1 ZH7      -0.081100
     57 O01        177.6470   154.0300   164.0210 oh         1 ZH7      -0.732000
     58 O06        174.1520   154.0960   161.3120 os         1 ZH7      -0.498000
     59 O09        172.0750   154.2580   158.3510 os         1 ZH7      -0.447000
     60 O13        170.7400   155.4940   162.2450 os         1 ZH7      -0.416000
     61 O15        170.9440   156.4730   164.2470 oh         1 ZH7      -0.682000
     62 O20        170.4190   161.6990   162.9540 os         1 ZH7      -0.460000
     63 O23        170.1620   161.1060   159.3480 oh         1 ZH7      -0.710000
     64 O32        167.7030   161.4740   152.4400 os         1 ZH7      -0.464000
     65 O35        167.7460   164.0930   151.5370 oh         1 ZH7      -0.708000
     66 O37        166.6490   163.6710   148.9600 oh         1 ZH7      -0.721000
     67 O39        165.6200   161.0610   148.5280 os         1 ZH7      -0.448000
     68 O43        165.4060   161.3620   152.1460 os         1 ZH7      -0.476000
     69 O56        171.0010   158.1070   161.0920 os         1 ZH7      -0.428100
     70 O57        173.0490   158.3560   161.9570 o          1 ZH7      -0.507000
     71 O58        168.5160   156.9870   161.6080 oh         1 ZH7      -0.682000
     72 O62        168.8070   153.2230   162.2510 oh         1 ZH7      -0.640000
     73 O65        175.9850   155.2460   160.4680 os         1 ZH7      -0.483000
     74 O69        178.7030   153.0750   161.5330 os         1 ZH7      -0.438000
     75 O73        182.9230   151.2080   162.8800 os         1 ZH7      -0.463000
     76 O76        184.0920   153.6180   161.9920 oh         1 ZH7      -0.718000
     77 O79        180.6590   154.0390   160.9480 os         1 ZH7      -0.491000
     78 H103       171.2650   154.1780   156.4960 h1         1 ZH7       0.026367
     79 H102       173.0340   154.2880   156.5040 h1         1 ZH7       0.026367
     80 H101       172.2400   152.7580   156.9180 h1         1 ZH7       0.026367
     81 H171       170.9900   158.6860   163.0920 h1         1 ZH7       0.088700
     82 H211       171.4820   162.9230   164.1650 h1         1 ZH7       0.032367
     83 H212       172.4810   161.8630   163.1550 h1         1 ZH7       0.032367
     84 H213       171.6920   163.2830   162.4470 h1         1 ZH7       0.032367
     85 H221       170.6920   162.7280   160.5080 h1         1 ZH7       0.028700
     86 H241       168.5010   162.9180   161.5670 hc         1 ZH7       0.051700
     87 H242       167.8780   161.5670   160.6440 hc         1 ZH7       0.051700
     88 H261       167.0570   161.9710   158.2810 ha         1 ZH7       0.163000
     89 H283       169.8970   164.3250   157.5500 hc         1 ZH7       0.039033
     90 H282       170.4800   163.1320   156.3980 hc         1 ZH7       0.039033
     91 H281       169.3870   164.3950   155.8690 hc         1 ZH7       0.039033
     92 H031       175.5370   152.3510   163.7040 hc         1 ZH7       0.046367
     93 H032       175.7020   152.2070   161.9660 hc         1 ZH7       0.046367
     94 H033       177.0270   151.7080   163.0140 hc         1 ZH7       0.046367
     95 H041       176.2460   155.9050   163.0880 hc         1 ZH7       0.066200
     96 H042       175.0170   154.7770   163.6330 hc         1 ZH7       0.066200
     97 H051       174.5260   156.0930   161.5180 h2         1 ZH7       0.086700
     98 H071       172.8120   155.4530   160.5140 h1         1 ZH7       0.064700
     99 H081       173.3570   152.8070   159.0950 h1         1 ZH7       0.030700
    100 H082       174.1090   154.3600   158.6980 h1         1 ZH7       0.030700
    101 H111       170.9460   153.6650   160.5940 hc         1 ZH7       0.074700
    102 H112       172.1150   152.6260   161.3770 hc         1 ZH7       0.074700
    103 H121       172.4300   154.6190   163.0460 h1         1 ZH7       0.048700
    104 H161       168.7490   157.7730   163.5120 h1         1 ZH7       0.025700
    105 H181       168.9550   159.5640   161.0030 hc         1 ZH7       0.067700
    106 H182       168.7910   159.9710   162.6970 hc         1 ZH7       0.067700
    107 H191       171.4530   160.6600   161.5290 h1         1 ZH7       0.038700
    108 H252       169.0100   164.1030   159.3590 hc         1 ZH7       0.043700
    109 H251       167.3340   163.9150   159.8130 hc         1 ZH7       0.043700
    110 H291       167.0950   161.3480   156.1500 ha         1 ZH7       0.165000
    111 H301       169.3390   162.4590   154.3870 ha         1 ZH7       0.185000
    112 H311       167.1370   160.3190   154.0720 h1         1 ZH7       0.046700
    113 H331       166.2990   162.6350   153.3900 h2         1 ZH7       0.070700
    114 H341       165.6890   163.8750   151.4140 h1         1 ZH7       0.050700
    115 H361       167.6040   162.0770   149.8740 h1         1 ZH7       0.071700
    116 H381       164.5730   162.3530   149.7680 h1         1 ZH7       0.053700
    117 H402       164.8870   160.8090   146.6600 h1         1 ZH7       0.031700
    118 H401       163.6600   161.2640   147.8510 h1         1 ZH7       0.031700
    119 H403       164.7960   162.4790   147.2370 h1         1 ZH7       0.031700
    120 H411       166.2910   160.0590   150.7970 h1         1 ZH7       0.062700
    121 H423       164.1280   159.1470   151.6080 hc         1 ZH7       0.045367
    122 H421       163.2630   160.4940   150.8550 hc         1 ZH7       0.045367
    123 H422       164.1310   159.3210   149.8590 hc         1 ZH7       0.045367
    124 H441       169.9380   160.3440   152.9050 hc         1 ZH7       0.068700
    125 H453       169.4400   157.9800   152.2980 hc         1 ZH7       0.039033
    126 H451       167.8060   158.1430   152.9390 hc         1 ZH7       0.039033
    127 H452       168.3000   159.0730   151.5190 hc         1 ZH7       0.039033
    128 H461       168.8170   159.1740   155.4740 ha         1 ZH7       0.171000
    129 H482       172.8670   159.4290   154.5630 hc         1 ZH7       0.041367
    130 H481       172.2970   157.9600   153.7880 hc         1 ZH7       0.041367
    131 H483       171.7480   159.5190   153.2100 hc         1 ZH7       0.041367
    132 H491       170.1380   158.7420   157.0650 ha         1 ZH7       0.175000
    133 H511       173.8370   156.8390   157.1840 hc         1 ZH7       0.043367
    134 H512       173.2050   157.1320   155.5790 hc         1 ZH7       0.043367
    135 H513       174.1180   158.3850   156.4020 hc         1 ZH7       0.043367
    136 H521       170.8640   158.0850   158.8940 ha         1 ZH7       0.200000
    137 H541       174.7480   158.7880   160.2720 hc         1 ZH7       0.051367
    138 H542       174.7910   157.3010   159.3480 hc         1 ZH7       0.051367
    139 H543       174.5530   158.8360   158.5310 hc         1 ZH7       0.051367
    140 H591       167.9900   155.3650   163.2690 hc         1 ZH7       0.066700
    141 H601       167.7390   154.7620   165.5730 hc         1 ZH7       0.038033
    142 H602       169.4400   155.0060   165.9300 hc         1 ZH7       0.038033
    143 H603       168.4000   156.3800   165.5300 hc         1 ZH7       0.038033
    144 H611       168.7710   153.0520   164.3040 h1         1 ZH7       0.026700
    145 H631       171.0350   153.8130   164.5950 hc         1 ZH7       0.052700
    146 H643       170.7210   151.4570   164.4380 hc         1 ZH7       0.038033
    147 H641       170.7930   151.4600   162.6790 hc         1 ZH7       0.038033
    148 H642       172.2280   151.8540   163.6250 hc         1 ZH7       0.038033
    149 H661       176.4370   153.2430   160.1830 h1         1 ZH7       0.053700
    150 H673       178.5250   153.7230   158.9780 hc         1 ZH7       0.047033
    151 H671       177.1750   154.5960   158.2630 hc         1 ZH7       0.047033
    152 H672       178.3440   155.4520   159.2810 hc         1 ZH7       0.047033
    153 H681       178.2490   155.0800   161.8110 h1         1 ZH7       0.067700
    154 H701       179.9660   153.9850   162.8760 h2         1 ZH7       0.040700
    155 H712       180.1740   151.5340   163.1010 hc         1 ZH7       0.069700
    156 H711       180.6820   151.4000   161.4100 hc         1 ZH7       0.069700
    157 H721       182.1270   152.9610   163.6120 h1         1 ZH7       0.043700
    158 H743       183.4130   149.7320   164.1740 h1         1 ZH7       0.031033
    159 H742       182.7600   151.1840   164.9530 h1         1 ZH7       0.031033
    160 H741       181.6780   150.0640   164.1080 h1         1 ZH7       0.031033
    161 H751       182.8560   152.5870   160.6790 h1         1 ZH7       0.056700
    162 H771       181.9350   155.0460   162.2230 h1         1 ZH7       0.040700
    163 H782       183.5150   155.6450   160.4160 hc         1 ZH7       0.048033
    164 H783       182.5930   154.6880   159.2530 hc         1 ZH7       0.048033
    165 H781       181.8810   156.1330   159.9840 hc         1 ZH7       0.048033
    166 H011       177.1280   153.7880   164.7960 ho         1 ZH7       0.504000
    167 H151       170.4900   156.8180   165.0230 ho         1 ZH7       0.455000
    168 H231       171.0870   160.8510   159.2580 ho         1 ZH7       0.505000
    169 H351       167.5680   164.7210   152.2440 ho         1 ZH7       0.508000
    170 H371       167.4020   164.2560   149.0950 ho         1 ZH7       0.518000
    171 H581       167.7250   157.5330   161.6160 ho         1 ZH7       0.496000
    172 H621       167.8560   153.3610   162.1960 ho         1 ZH7       0.439000
    173 H761       184.5960   152.8390   162.2510 ho         1 ZH7       0.519000
    174 C40        164.6950   161.4310   147.5340 c3         1 ZH7       0.151900
    175 C74        182.6710   150.5240   164.0830 c3         1 ZH7       0.148900
@<TRIPOS>BOND
     1     1    59 1   
     2     1    78 1   
     3     1    79 1   
     4     1    80 1   
     5     2    17 1   
     6     2    18 1   
     7     2    69 1   
     8     2    81 1   
     9     3    62 1   
    10     3    82 1   
    11     3    83 1   
    12     3    84 1   
    13     4     5 1   
    14     4    19 1   
    15     4    63 1   
    16     4    85 1   
    17     5    20 1   
    18     5    86 1   
    19     5    87 1   
    20     6    20 1   
    21     6    21 2   
    22     6    88 1   
    23     7    21 1   
    24     7    89 1   
    25     7    90 1   
    26     7    91 1   
    27     8     9 1   
    28     8    10 1   
    29     8    50 1   
    30     8    57 1   
    31     9    92 1   
    32     9    93 1   
    33     9    94 1   
    34    10    11 1   
    35    10    95 1   
    36    10    96 1   
    37    11    58 1   
    38    11    73 1   
    39    11    97 1   
    40    12    13 1   
    41    12    14 1   
    42    12    58 1   
    43    12    98 1   
    44    13    59 1   
    45    13    99 1   
    46    13   100 1   
    47    14    15 1   
    48    14   101 1   
    49    14   102 1   
    50    15    46 1   
    51    15    60 1   
    52    15   103 1   
    53    16    17 1   
    54    16    43 1   
    55    16    60 1   
    56    16    61 1   
    57    17    71 1   
    58    17   104 1   
    59    18    19 1   
    60    18   105 1   
    61    18   106 1   
    62    19    62 1   
    63    19   107 1   
    64    20   108 1   
    65    20   109 1   
    66    21    22 1   
    67    22    23 2   
    68    22   110 1   
    69    23    24 1   
    70    23   111 1   
    71    24    31 1   
    72    24    64 1   
    73    24   112 1   
    74    25    26 1   
    75    25    64 1   
    76    25    68 1   
    77    25   113 1   
    78    26    27 1   
    79    26    65 1   
    80    26   114 1   
    81    27    28 1   
    82    27    66 1   
    83    27   115 1   
    84    28    29 1   
    85    28    67 1   
    86    28   116 1   
    87    29    30 1   
    88    29    68 1   
    89    29   120 1   
    90    30   121 1   
    91    30   122 1   
    92    30   123 1   
    93    31    32 1   
    94    31    33 1   
    95    31   124 1   
    96    32   125 1   
    97    32   126 1   
    98    32   127 1   
    99    33    34 2   
   100    33   128 1   
   101    34    35 1   
   102    34    36 1   
   103    35   129 1   
   104    35   130 1   
   105    35   131 1   
   106    36    37 2   
   107    36   132 1   
   108    37    38 1   
   109    37    39 1   
   110    38   133 1   
   111    38   134 1   
   112    38   135 1   
   113    39    40 2   
   114    39   136 1   
   115    40    41 1   
   116    40    42 1   
   117    41   137 1   
   118    41   138 1   
   119    41   139 1   
   120    42    69 1   
   121    42    70 2   
   122    43    44 1   
   123    43    45 1   
   124    43   140 1   
   125    44   141 1   
   126    44   142 1   
   127    44   143 1   
   128    45    46 1   
   129    45    72 1   
   130    45   144 1   
   131    46    47 1   
   132    46   145 1   
   133    47   146 1   
   134    47   147 1   
   135    47   148 1   
   136    48    49 1   
   137    48    50 1   
   138    48    73 1   
   139    48   149 1   
   140    49   150 1   
   141    49   151 1   
   142    49   152 1   
   143    50    74 1   
   144    50   153 1   
   145    51    52 1   
   146    51    74 1   
   147    51    77 1   
   148    51   154 1   
   149    52    53 1   
   150    52   155 1   
   151    52   156 1   
   152    53    54 1   
   153    53    75 1   
   154    53   157 1   
   155    54    55 1   
   156    54    76 1   
   157    54   161 1   
   158    55    56 1   
   159    55    77 1   
   160    55   162 1   
   161    56   163 1   
   162    56   164 1   
   163    56   165 1   
   164    57   166 1   
   165    61   167 1   
   166    63   168 1   
   167    65   169 1   
   168    66   170 1   
   169    67   174 1   
   170    71   171 1   
   171    72   172 1   
   172    75   175 1   
   173    76   173 1   
   174   117   174 1   
   175   118   174 1   
   176   119   174 1   
   177   158   175 1   
   178   159   175 1   
   179   160   175 1   
@<TRIPOS>SUBSTRUCTURE
     1 ZH7         1 TEMP              0 ****  ****    0 ROOT
