@<TRIPOS>MOLECULE
ZH8
   49    51     1     0     0
SMALL
abcg2


@<TRIPOS>ATOM
      1 C1         -28.5880    12.9520   -60.8290 c3         1 ZH8      -0.181100
      2 C2         -29.5140    13.3360   -61.9600 c          1 ZH8       0.585100
      3 O1         -29.3970    12.8740   -63.0940 o          1 ZH8      -0.571100
      4 N1         -30.4740    14.2310   -61.6270 ns         1 ZH8      -0.526900
      5 C3         -31.4740    14.7330   -62.5440 c6         1 ZH8       0.050700
      6 C4         -31.5270    16.2620   -62.4880 c6         1 ZH8       0.126300
      7 O2         -30.3270    16.8490   -62.9780 oh         1 ZH8      -0.647000
      8 C5         -32.6660    16.8150   -63.3330 c6         1 ZH8       0.146300
      9 O3         -32.8120    18.2140   -63.1180 oh         1 ZH8      -0.713000
     10 C6         -33.9800    16.1270   -62.9610 c6         1 ZH8       0.178300
     11 C7         -35.1260    16.5660   -63.8410 c3         1 ZH8       0.169600
     12 O4         -36.3400    16.0420   -63.3040 oh         1 ZH8      -0.730000
     13 O5         -33.8210    14.7150   -63.1170 os         1 ZH8      -0.468000
     14 C8         -32.8590    14.1620   -62.2380 c6         1 ZH8       0.382300
     15 O6         -32.8240    12.7870   -62.4460 os         1 ZH8      -0.440000
     16 C9         -33.8890    12.0490   -61.8770 c3         1 ZH8       0.109300
     17 C10        -33.3590    10.8760   -61.1060 c2         1 ZH8       0.533300
     18 C11        -31.9380    10.9100   -60.6740 c6         1 ZH8      -0.276700
     19 C12        -31.4890     9.7760   -59.8160 c          1 ZH8       0.528800
     20 O7         -30.4000     9.6620   -59.3440 o          1 ZH8      -0.386000
     21 N2         -32.4960     8.7420   -59.5620 n          1 ZH8      -0.020500
     22 C13        -32.1220     7.6770   -58.8010 ca         1 ZH8      -0.030000
     23 C14        -33.0070     6.6760   -58.5170 ca         1 ZH8      -0.132000
     24 C15        -34.3090     6.7610   -59.0200 ca         1 ZH8       0.034000
     25 C16        -34.6800     7.8450   -59.7910 ca         1 ZH8      -0.113000
     26 C17        -33.7680     8.8560   -60.0710 ca         1 ZH8       0.287100
     27 N3         -34.1710     9.9220   -60.8340 ne         1 ZH8      -0.593100
     28 H1         -27.9130    12.1690   -61.1640 hc         1 ZH8       0.066033
     29 H2         -28.0070    13.8190   -60.5100 hc         1 ZH8       0.066033
     30 H3         -29.1580    12.5980   -59.9680 hc         1 ZH8       0.066033
     31 H4         -30.5260    14.5370   -60.6660 hn         1 ZH8       0.305500
     32 H5         -31.1920    14.4140   -63.5470 h1         1 ZH8       0.131700
     33 H6         -31.6960    16.5720   -61.4490 h1         1 ZH8       0.039700
     34 H7         -29.6170    16.6800   -62.3460 ho         1 ZH8       0.458000
     35 H8         -32.4470    16.6110   -64.3880 h1         1 ZH8       0.073700
     36 H9         -31.9420    18.6170   -63.2440 ho         1 ZH8       0.532000
     37 H10        -34.2220    16.3570   -61.9150 h1         1 ZH8       0.061700
     38 H11        -34.9550    16.1970   -64.8590 h1         1 ZH8       0.053700
     39 H12        -35.1490    17.6580   -63.8650 h1         1 ZH8       0.053700
     40 H13        -37.0660    16.3220   -63.8740 ho         1 ZH8       0.516000
     41 H14        -33.1470    14.3850   -61.1990 h2         1 ZH8       0.019700
     42 H15        -34.4670    12.6650   -61.1770 h1         1 ZH8       0.103700
     43 H16        -34.5750    11.6940   -62.6490 h1         1 ZH8       0.103700
     44 H17        -31.2880    10.9420   -61.5550 hc         1 ZH8       0.154200
     45 H18        -31.7270    11.8450   -60.1440 hc         1 ZH8       0.154200
     46 H19        -31.1010     7.6950   -58.4550 h4         1 ZH8       0.197000
     47 H20        -32.6880     5.8410   -57.9110 ha         1 ZH8       0.180000
     48 H21        -35.0260     5.9790   -58.8070 ha         1 ZH8       0.171000
     49 H22        -35.6760     7.9460   -60.1950 ha         1 ZH8       0.189000
@<TRIPOS>BOND
     1     1     2 1   
     2     1    28 1   
     3     1    29 1   
     4     1    30 1   
     5     2     3 2   
     6     2     4 1   
     7     4     5 1   
     8     4    31 1   
     9     5     6 1   
    10     5    14 1   
    11     5    32 1   
    12     6     7 1   
    13     6     8 1   
    14     6    33 1   
    15     7    34 1   
    16     8     9 1   
    17     8    10 1   
    18     8    35 1   
    19     9    36 1   
    20    10    11 1   
    21    10    13 1   
    22    10    37 1   
    23    11    12 1   
    24    11    38 1   
    25    11    39 1   
    26    12    40 1   
    27    13    14 1   
    28    14    15 1   
    29    14    41 1   
    30    15    16 1   
    31    16    17 1   
    32    16    42 1   
    33    16    43 1   
    34    17    18 1   
    35    17    27 2   
    36    18    19 1   
    37    18    44 1   
    38    18    45 1   
    39    19    20 2   
    40    19    21 1   
    41    21    22 1   
    42    21    26 2   
    43    22    23 ar  
    44    22    46 1   
    45    23    24 ar  
    46    23    47 1   
    47    24    25 ar  
    48    24    48 1   
    49    25    26 ar  
    50    25    49 1   
    51    26    27 1   
@<TRIPOS>SUBSTRUCTURE
     1 ZH8         1 TEMP              0 ****  ****    0 ROOT
