@<TRIPOS>MOLECULE
ZH8
   49    51     1     0     0
SMALL
No Charge or Current Charge


@<TRIPOS>ATOM
      1 C1         -28.1160    13.7240   -60.7700 c3         1 ZH8      -0.181100
      2 C2         -29.2680    13.6750   -61.7620 c          1 ZH8       0.585100
      3 O1         -29.4590    12.7210   -62.5000 o          1 ZH8      -0.571100
      4 N1         -30.0710    14.7940   -61.7700 ns         1 ZH8      -0.526900
      5 C3         -31.3240    14.9480   -62.5570 c6         1 ZH8       0.050700
      6 C4         -31.5310    16.4300   -62.9840 c6         1 ZH8       0.126300
      7 O2         -30.4280    16.8930   -63.7830 oh         1 ZH8      -0.647000
      8 C5         -32.8640    16.6000   -63.7700 c6         1 ZH8       0.146300
      9 O3         -33.0490    17.9870   -64.1080 oh         1 ZH8      -0.713000
     10 C6         -34.0430    16.0360   -62.9190 c6         1 ZH8       0.178300
     11 C7         -35.4110    16.0890   -63.6770 c3         1 ZH8       0.169600
     12 O4         -36.5070    15.5220   -62.9240 oh         1 ZH8      -0.730000
     13 O5         -33.7650    14.6560   -62.5680 os         1 ZH8      -0.468000
     14 C8         -32.5850    14.4830   -61.7620 c6         1 ZH8       0.382300
     15 O6         -32.4740    13.0940   -61.4230 os         1 ZH8      -0.440000
     16 C9         -33.5130    12.5430   -60.5780 c3         1 ZH8       0.109300
     17 C10        -33.2210    11.0770   -60.2910 c2         1 ZH8       0.533300
     18 C11        -31.7970    10.7000   -59.9570 c6         1 ZH8      -0.276700
     19 C12        -31.7620     9.4160   -59.1380 c          1 ZH8       0.528800
     20 O7         -31.0440     9.3070   -58.1550 o          1 ZH8      -0.386000
     21 N2         -32.6600     8.4150   -59.5370 n          1 ZH8      -0.020500
     22 C13        -32.5440     7.0380   -59.1390 ca         1 ZH8      -0.030000
     23 C14        -33.5120     6.0910   -59.5140 ca         1 ZH8      -0.132000
     24 C15        -34.6340     6.4930   -60.2590 ca         1 ZH8       0.034000
     25 C16        -34.8000     7.8450   -60.6060 ca         1 ZH8      -0.113000
     26 C17        -33.8410     8.8060   -60.2480 ca         1 ZH8       0.287100
     27 N3         -34.1290    10.1640   -60.4950 ne         1 ZH8      -0.593100
     28 H1         -27.4960    12.8210   -60.7990 hc         1 ZH8       0.066033
     29 H2         -27.5250    14.6280   -60.9530 hc         1 ZH8       0.066033
     30 H3         -28.5180    13.9070   -59.7670 hc         1 ZH8       0.066033
     31 H4         -29.8330    15.5150   -61.0970 hn         1 ZH8       0.305500
     32 H5         -31.2570    14.3260   -63.4620 h1         1 ZH8       0.131700
     33 H6         -31.5950    17.0360   -62.0670 h1         1 ZH8       0.039700
     34 H7         -29.6120    16.5180   -63.3810 ho         1 ZH8       0.458000
     35 H8         -32.7960    15.9980   -64.6900 h1         1 ZH8       0.073700
     36 H9         -32.1450    18.3080   -64.3510 ho         1 ZH8       0.532000
     37 H10        -34.1420    16.6240   -61.9940 h1         1 ZH8       0.061700
     38 H11        -35.2890    15.5560   -64.6310 h1         1 ZH8       0.053700
     39 H12        -35.6250    17.1400   -63.9200 h1         1 ZH8       0.053700
     40 H13        -37.3030    15.5480   -63.5080 ho         1 ZH8       0.516000
     41 H14        -32.6780    15.0750   -60.8400 h2         1 ZH8       0.019700
     42 H15        -33.5700    13.0820   -59.6240 h1         1 ZH8       0.103700
     43 H16        -34.4940    12.6230   -61.0640 h1         1 ZH8       0.103700
     44 H17        -31.3240    10.4860   -60.9230 hc         1 ZH8       0.154200
     45 H18        -31.2450    11.4980   -59.4470 hc         1 ZH8       0.154200
     46 H19        -31.6630     6.7600   -58.5560 h4         1 ZH8       0.197000
     47 H20        -33.3970     5.0470   -59.2250 ha         1 ZH8       0.180000
     48 H21        -35.3890     5.7610   -60.5440 ha         1 ZH8       0.171000
     49 H22        -35.6930     8.1580   -61.1390 ha         1 ZH8       0.189000
@<TRIPOS>BOND
     1     1     2 1   
     2     1    28 1   
     3     1    29 1   
     4     1    30 1   
     5     2     3 2   
     6     2     4 1   
     7     4     5 1   
     8     4    31 1   
     9     5     6 1   
    10     5    14 1   
    11     5    32 1   
    12     6     7 1   
    13     6     8 1   
    14     6    33 1   
    15     7    34 1   
    16     8     9 1   
    17     8    10 1   
    18     8    35 1   
    19     9    36 1   
    20    10    11 1   
    21    10    13 1   
    22    10    37 1   
    23    11    12 1   
    24    11    38 1   
    25    11    39 1   
    26    12    40 1   
    27    13    14 1   
    28    14    15 1   
    29    14    41 1   
    30    15    16 1   
    31    16    17 1   
    32    16    42 1   
    33    16    43 1   
    34    17    18 1   
    35    17    27 2   
    36    18    19 1   
    37    18    44 1   
    38    18    45 1   
    39    19    20 2   
    40    19    21 1   
    41    21    22 1   
    42    21    26 2   
    43    22    23 ar  
    44    22    46 1   
    45    23    24 ar  
    46    23    47 1   
    47    24    25 ar  
    48    24    48 1   
    49    25    26 ar  
    50    25    49 1   
    51    26    27 1   
@<TRIPOS>SUBSTRUCTURE
     1 ZH8         1 TEMP              0 ****  ****    0 ROOT
