@<TRIPOS>MOLECULE
ZHA
   28    29     1     0     0
SMALL
abcg2


@<TRIPOS>ATOM
      1 C13         -3.8610    -0.2300    -0.2610 c6         1 ZHA      -0.179400
      2 C01         -0.4480     1.4950    -0.0210 ca         1 ZHA      -0.026000
      3 C02         -1.4240     0.5030    -0.0970 ca         1 ZHA      -0.210600
      4 C03         -1.0260    -0.8390    -0.1280 ca         1 ZHA      -0.001300
      5 C04          0.3250    -1.1410    -0.0790 ca         1 ZHA      -0.193000
      6 C05          1.2990    -0.1440    -0.0040 ca         1 ZHA       0.015000
      7 C06          0.8990     1.1970     0.0230 ca         1 ZHA      -0.154000
      8 N07          2.6230    -0.5690     0.0470 ns         1 ZHA      -0.151000
      9 C08          3.7720     0.1620     0.1350 c          1 ZHA       0.612100
     10 C09          5.0280    -0.6700     0.1270 c3         1 ZHA      -0.184100
     11 O10          3.8030     1.3740     0.1850 o          1 ZHA      -0.569100
     12 C11         -2.0430    -1.9420    -0.2210 c6         1 ZHA      -0.040100
     13 C12         -3.3760    -1.5230     0.3780 c6         1 ZHA      -0.066400
     14 C14         -2.8550     0.8910    -0.1470 c          1 ZHA       0.592700
     15 O15         -3.1970     2.0510    -0.1180 o          1 ZHA      -0.528100
     16 H1          -4.0390    -0.3970    -1.3310 hc         1 ZHA       0.069200
     17 H2          -4.8090     0.1020     0.1620 hc         1 ZHA       0.069200
     18 H3          -0.7550     2.5330     0.0030 ha         1 ZHA       0.136000
     19 H4           0.6290    -2.1820    -0.0970 ha         1 ZHA       0.108000
     20 H5           1.6230     1.9910     0.0780 ha         1 ZHA       0.152000
     21 H6           2.7430    -1.5680     0.0150 hn         1 ZHA       0.149000
     22 H7           5.4220    -0.7130    -0.8890 hc         1 ZHA       0.065033
     23 H8           5.7830    -0.2030     0.7550 hc         1 ZHA       0.065033
     24 H9           4.8820    -1.6940     0.4680 hc         1 ZHA       0.065033
     25 H10         -2.1840    -2.2070    -1.2750 hc         1 ZHA       0.053700
     26 H11         -1.6630    -2.8400     0.2700 hc         1 ZHA       0.053700
     27 H12         -3.2650    -1.3830     1.4560 hc         1 ZHA       0.049200
     28 H13         -4.1180    -2.3100     0.2380 hc         1 ZHA       0.049200
@<TRIPOS>BOND
     1     1    13 1   
     2     1    14 1   
     3     1    16 1   
     4     1    17 1   
     5     2     3 ar  
     6     2     7 ar  
     7     2    18 1   
     8     3     4 ar  
     9     3    14 1   
    10     4     5 ar  
    11     4    12 1   
    12     5     6 ar  
    13     5    19 1   
    14     6     7 ar  
    15     6     8 1   
    16     7    20 1   
    17     8     9 1   
    18     8    21 1   
    19     9    10 1   
    20     9    11 2   
    21    10    22 1   
    22    10    23 1   
    23    10    24 1   
    24    12    13 1   
    25    12    25 1   
    26    12    26 1   
    27    13    27 1   
    28    13    28 1   
    29    14    15 2   
@<TRIPOS>SUBSTRUCTURE
     1 ZHA         1 TEMP              0 ****  ****    0 ROOT
