@<TRIPOS>MOLECULE
ZHA
   28    29     1     0     0
SMALL
No Charge or Current Charge


@<TRIPOS>ATOM
      1 C13         -3.9020    -0.2270    -0.3640 c6         1 ZHA      -0.179400
      2 C01         -0.4710     1.5530     0.0600 ca         1 ZHA      -0.026000
      3 C02         -1.4470     0.5390    -0.0320 ca         1 ZHA      -0.210600
      4 C03         -1.0350    -0.8120    -0.0900 ca         1 ZHA      -0.001300
      5 C04          0.3370    -1.1230    -0.0710 ca         1 ZHA      -0.193000
      6 C05          1.3130    -0.1150     0.0150 ca         1 ZHA       0.015000
      7 C06          0.8960     1.2300     0.0830 ca         1 ZHA      -0.154000
      8 N07          2.6760    -0.5220     0.0310 ns         1 ZHA      -0.151000
      9 C08          3.8650     0.1910     0.0990 c          1 ZHA       0.612100
     10 C09          5.1140    -0.6850     0.0890 c3         1 ZHA      -0.184100
     11 O10          3.9440     1.4120     0.1620 o          1 ZHA      -0.569100
     12 C11         -2.0530    -1.9550    -0.1840 c6         1 ZHA      -0.040100
     13 C12         -3.4690    -1.5570     0.2880 c6         1 ZHA      -0.066400
     14 C14         -2.9120     0.9020    -0.0540 c          1 ZHA       0.592700
     15 O15         -3.3090     2.0310     0.2060 o          1 ZHA      -0.528100
     16 H1          -3.8590    -0.3860    -1.4490 hc         1 ZHA       0.069200
     17 H2          -4.9230     0.0740    -0.0960 hc         1 ZHA       0.069200
     18 H3          -0.7680     2.5990     0.1110 ha         1 ZHA       0.136000
     19 H4           0.6480    -2.1640    -0.1230 ha         1 ZHA       0.108000
     20 H5           1.6120     2.0430     0.1540 ha         1 ZHA       0.152000
     21 H6           2.8000    -1.5240    -0.0170 hn         1 ZHA       0.149000
     22 H7           5.0920    -1.3280    -0.7990 hc         1 ZHA       0.065033
     23 H8           6.0400    -0.1010     0.1430 hc         1 ZHA       0.065033
     24 H9           5.0460    -1.4130     0.9050 hc         1 ZHA       0.065033
     25 H10         -2.1000    -2.3000    -1.2260 hc         1 ZHA       0.053700
     26 H11         -1.7060    -2.8160     0.4040 hc         1 ZHA       0.053700
     27 H12         -3.4780    -1.4500     1.3820 hc         1 ZHA       0.049200
     28 H13         -4.1850    -2.3530     0.0430 hc         1 ZHA       0.049200
@<TRIPOS>BOND
     1     1    13 1   
     2     1    14 1   
     3     1    16 1   
     4     1    17 1   
     5     2     3 ar  
     6     2     7 ar  
     7     2    18 1   
     8     3     4 ar  
     9     3    14 1   
    10     4     5 ar  
    11     4    12 1   
    12     5     6 ar  
    13     5    19 1   
    14     6     7 ar  
    15     6     8 1   
    16     7    20 1   
    17     8     9 1   
    18     8    21 1   
    19     9    10 1   
    20     9    11 2   
    21    10    22 1   
    22    10    23 1   
    23    10    24 1   
    24    12    13 1   
    25    12    25 1   
    26    12    26 1   
    27    13    27 1   
    28    13    28 1   
    29    14    15 2   
@<TRIPOS>SUBSTRUCTURE
     1 ZHA         1 TEMP              0 ****  ****    0 ROOT
