@<TRIPOS>MOLECULE
ZHB
   47    48     1     0     0
SMALL
bcc


@<TRIPOS>ATOM
      1 CAO          4.2800     0.3730    -0.4220 c3         1 ZHB      -0.065400
      2 CAL          3.2560     1.4330     0.0200 c3         1 ZHB      -0.073400
      3 CAM          2.2460     1.7740    -1.0780 c3         1 ZHB      -0.093400
      4 CAV          1.0880     2.7290    -0.7330 c3         1 ZHB       0.170100
      5 CAA          1.3230     3.6470     0.4500 c3         1 ZHB      -0.120100
      6 OAP         -0.2040     2.0540    -0.6340 os         1 ZHB      -0.450900
      7 CAQ         -0.4110     1.0790     0.2390 c          1 ZHB       0.662700
      8 OAB          0.3920     0.7050     1.0540 o          1 ZHB      -0.514000
      9 CAU         -1.7650     0.4740     0.1270 ca         1 ZHB      -0.259600
     10 CAS         -2.9200     1.2280     0.3500 ca         1 ZHB       0.224100
     11 OAD         -2.9090     2.5690     0.4740 oh         1 ZHB      -0.496100
     12 CAH         -4.1500     0.5980     0.5050 ca         1 ZHB      -0.217000
     13 CAR         -4.2320    -0.7840     0.4120 ca         1 ZHB       0.194100
     14 OAC         -5.4410    -1.3440     0.5760 oh         1 ZHB      -0.487100
     15 CAI         -3.0960    -1.5410     0.1170 ca         1 ZHB      -0.262000
     16 CAT         -1.8670    -0.9180    -0.0240 ca         1 ZHB       0.075200
     17 CAG         -0.6900    -1.6880    -0.4650 ce         1 ZHB      -0.138200
     18 CAF         -0.1980    -2.7860     0.1030 c2         1 ZHB      -0.129200
     19 CAJ          1.0060    -3.5150    -0.4210 c3         1 ZHB      -0.045200
     20 CAK          2.3340    -2.9890     0.1450 c3         1 ZHB      -0.069400
     21 CAN          2.6600    -1.5830    -0.3480 c3         1 ZHB      -0.123400
     22 CAW          4.0170    -1.0420     0.0890 c3         1 ZHB       0.157100
     23 OAE          4.1510    -1.0090     1.5000 oh         1 ZHB      -0.596800
     24 H1           4.3430     0.3380    -1.5140 hc         1 ZHB       0.043700
     25 H2           5.2790     0.6630    -0.0830 hc         1 ZHB       0.043700
     26 H3           2.7500     1.1040     0.9260 hc         1 ZHB       0.059700
     27 H4           3.7890     2.3470     0.2910 hc         1 ZHB       0.059700
     28 H5           2.8030     2.2500    -1.8910 hc         1 ZHB       0.044700
     29 H6           1.8370     0.8620    -1.5210 hc         1 ZHB       0.044700
     30 H7           0.9130     3.3550    -1.6070 h1         1 ZHB       0.065700
     31 H8           1.4660     3.1110     1.3860 hc         1 ZHB       0.051700
     32 H9           2.2180     4.2430     0.2670 hc         1 ZHB       0.051700
     33 H10          0.4920     4.3430     0.5700 hc         1 ZHB       0.051700
     34 H11         -2.1000     2.9500     0.1130 ho         1 ZHB       0.445000
     35 H12         -5.0380     1.1890     0.6970 ha         1 ZHB       0.166000
     36 H13         -5.3860    -2.3020     0.4860 ho         1 ZHB       0.431000
     37 H14         -3.1760    -2.6110    -0.0390 ha         1 ZHB       0.139000
     38 H15         -0.1920    -1.2990    -1.3510 ha         1 ZHB       0.129000
     39 H16         -0.6520    -3.1660     1.0140 ha         1 ZHB       0.126000
     40 H17          0.9130    -4.5770    -0.1830 hc         1 ZHB       0.045200
     41 H18          1.0380    -3.4390    -1.5110 hc         1 ZHB       0.045200
     42 H19          2.2840    -3.0150     1.2380 hc         1 ZHB       0.039700
     43 H20          3.1290    -3.6820    -0.1480 hc         1 ZHB       0.039700
     44 H21          2.6370    -1.5810    -1.4440 hc         1 ZHB       0.057200
     45 H22          1.8760    -0.9020    -0.0170 hc         1 ZHB       0.057200
     46 H23          4.7970    -1.6920    -0.3400 h1         1 ZHB       0.018700
     47 H24          4.0610    -1.9050     1.8360 ho         1 ZHB       0.401000
@<TRIPOS>BOND
     1     1     2 1   
     2     1    22 1   
     3     1    24 1   
     4     1    25 1   
     5     2     3 1   
     6     2    26 1   
     7     2    27 1   
     8     3     4 1   
     9     3    28 1   
    10     3    29 1   
    11     4     5 1   
    12     4     6 1   
    13     4    30 1   
    14     5    31 1   
    15     5    32 1   
    16     5    33 1   
    17     6     7 1   
    18     7     8 2   
    19     7     9 1   
    20     9    10 ar  
    21     9    16 ar  
    22    10    11 1   
    23    10    12 ar  
    24    11    34 1   
    25    12    13 ar  
    26    12    35 1   
    27    13    14 1   
    28    13    15 ar  
    29    14    36 1   
    30    15    16 ar  
    31    15    37 1   
    32    16    17 1   
    33    17    18 2   
    34    17    38 1   
    35    18    19 1   
    36    18    39 1   
    37    19    20 1   
    38    19    40 1   
    39    19    41 1   
    40    20    21 1   
    41    20    42 1   
    42    20    43 1   
    43    21    22 1   
    44    21    44 1   
    45    21    45 1   
    46    22    23 1   
    47    22    46 1   
    48    23    47 1   
@<TRIPOS>SUBSTRUCTURE
     1 ZHB         1 TEMP              0 ****  ****    0 ROOT
