@<TRIPOS>MOLECULE
ZHB
   47    48     1     0     0
SMALL
No Charge or Current Charge


@<TRIPOS>ATOM
      1 CAO          4.3070     0.3840    -0.5030 c3         1 ZHB      -0.065400
      2 CAL          3.3050     1.5090    -0.1020 c3         1 ZHB      -0.073400
      3 CAM          2.1770     1.7720    -1.1450 c3         1 ZHB      -0.093400
      4 CAV          1.0490     2.7850    -0.7490 c3         1 ZHB       0.193300
      5 CAA          1.3120     3.7090     0.4650 c3         1 ZHB      -0.120100
      6 OAP         -0.2210     2.1020    -0.5910 os         1 ZHB      -0.474100
      7 CAQ         -0.3910     1.0970     0.3300 c          1 ZHB       0.613700
      8 OAB          0.3780     0.8430     1.2420 o          1 ZHB      -0.465000
      9 CAU         -1.7400     0.4690     0.2410 ca         1 ZHB      -0.259600
     10 CAS         -2.8980     1.2240     0.4930 ca         1 ZHB       0.224100
     11 OAD         -2.8220     2.5670     0.7070 oh         1 ZHB      -0.535100
     12 CAH         -4.1500     0.5990     0.5270 ca         1 ZHB      -0.199000
     13 CAR         -4.2540    -0.7770     0.2930 ca         1 ZHB       0.194100
     14 OAC         -5.4750    -1.3760     0.3250 oh         1 ZHB      -0.526100
     15 CAI         -3.1090    -1.5290     0.0020 ca         1 ZHB      -0.244000
     16 CAT         -1.8490    -0.9090    -0.0370 ca         1 ZHB       0.075200
     17 CAG         -0.6550    -1.6870    -0.4520 ce         1 ZHB      -0.188200
     18 CAF         -0.2310    -2.8390     0.1110 c2         1 ZHB      -0.179200
     19 CAJ          0.9970    -3.6210    -0.3250 c3         1 ZHB      -0.045200
     20 CAK          2.3370    -3.0410     0.1940 c3         1 ZHB      -0.069400
     21 CAN          2.6340    -1.6010    -0.3020 c3         1 ZHB      -0.123400
     22 CAW          4.0250    -1.0370     0.0700 c3         1 ZHB       0.180300
     23 OAE          4.1720    -1.0100     1.4930 oh         1 ZHB      -0.659000
     24 H1           4.3680     0.3240    -1.5960 hc         1 ZHB       0.043700
     25 H2           5.3080     0.6830    -0.1690 hc         1 ZHB       0.043700
     26 H3           2.8810     1.2810     0.8810 hc         1 ZHB       0.059700
     27 H4           3.8730     2.4390     0.0240 hc         1 ZHB       0.059700
     28 H5           2.6590     2.1580    -2.0520 hc         1 ZHB       0.044700
     29 H6           1.7200     0.8250    -1.4510 hc         1 ZHB       0.044700
     30 H7           0.9430     3.4600    -1.6100 h1         1 ZHB       0.065700
     31 H8           1.4900     3.1490     1.3890 hc         1 ZHB       0.051700
     32 H9           2.1910     4.3380     0.2770 hc         1 ZHB       0.051700
     33 H10          0.4560     4.3740     0.6280 hc         1 ZHB       0.051700
     34 H11         -1.9640     2.8750     0.3430 ho         1 ZHB       0.484000
     35 H12         -5.0420     1.1830     0.7330 ha         1 ZHB       0.148000
     36 H13         -5.3510    -2.3290     0.1340 ho         1 ZHB       0.470000
     37 H14         -3.1900    -2.5900    -0.2180 ha         1 ZHB       0.121000
     38 H15         -0.0960    -1.2430    -1.2770 ha         1 ZHB       0.179000
     39 H16         -0.7800    -3.2800     0.9450 ha         1 ZHB       0.176000
     40 H17          0.9100    -4.6580     0.0240 hc         1 ZHB       0.045200
     41 H18          1.0330    -3.6750    -1.4200 hc         1 ZHB       0.045200
     42 H19          2.3260    -3.0600     1.2900 hc         1 ZHB       0.039700
     43 H20          3.1510    -3.7040    -0.1270 hc         1 ZHB       0.039700
     44 H21          2.5290    -1.5740    -1.3940 hc         1 ZHB       0.057200
     45 H22          1.8740    -0.9350     0.1110 hc         1 ZHB       0.057200
     46 H23          4.7810    -1.7130    -0.3540 h1         1 ZHB       0.018700
     47 H24          3.9830    -1.9180     1.8120 ho         1 ZHB       0.440000
@<TRIPOS>BOND
     1     1     2 1   
     2     1    22 1   
     3     1    24 1   
     4     1    25 1   
     5     2     3 1   
     6     2    26 1   
     7     2    27 1   
     8     3     4 1   
     9     3    28 1   
    10     3    29 1   
    11     4     5 1   
    12     4     6 1   
    13     4    30 1   
    14     5    31 1   
    15     5    32 1   
    16     5    33 1   
    17     6     7 1   
    18     7     8 2   
    19     7     9 1   
    20     9    10 ar  
    21     9    16 ar  
    22    10    11 1   
    23    10    12 ar  
    24    11    34 1   
    25    12    13 ar  
    26    12    35 1   
    27    13    14 1   
    28    13    15 ar  
    29    14    36 1   
    30    15    16 ar  
    31    15    37 1   
    32    16    17 1   
    33    17    18 2   
    34    17    38 1   
    35    18    19 1   
    36    18    39 1   
    37    19    20 1   
    38    19    40 1   
    39    19    41 1   
    40    20    21 1   
    41    20    42 1   
    42    20    43 1   
    43    21    22 1   
    44    21    44 1   
    45    21    45 1   
    46    22    23 1   
    47    22    46 1   
    48    23    47 1   
@<TRIPOS>SUBSTRUCTURE
     1 ZHB         1 TEMP              0 ****  ****    0 ROOT
