@<TRIPOS>MOLECULE
ZHD
  177   181     1     0     0
SMALL
bcc


@<TRIPOS>ATOM
      1 C10        177.2050   154.8550   161.6430 c6         1 ZHD       0.155100
      2 C13        175.1270   154.2100   162.5900 c6         1 ZHD       0.350900
      3 C15        172.7590   154.5330   162.1160 c6         1 ZHD       0.156800
      4 C17        173.0270   155.7450   161.1910 c6         1 ZHD       0.134100
      5 C22        171.4690   156.3530   157.0920 c3         1 ZHD       0.119700
      6 C24        171.5790   157.2020   162.4760 c6         1 ZHD       0.355600
      7 C28        169.4850   160.4610   161.7430 c3         1 ZHD      -0.075400
      8 C02        182.6680   152.3950   163.3600 c6         1 ZHD       0.081100
      9 C03        182.7590   153.9260   163.4910 c6         1 ZHD       0.183800
     10 C05        184.0960   154.4480   162.9890 c3         1 ZHD      -0.078100
     11 C06        181.5990   154.5650   162.7090 c6         1 ZHD      -0.126400
     12 C07        180.3260   153.7280   162.8140 c6         1 ZHD       0.345900
     13 C09        177.9720   153.9740   162.6370 c6         1 ZHD       0.129100
     14 C11        177.8900   154.9390   160.2940 c3         1 ZHD      -0.087100
     15 C16        171.6620   153.6350   161.5530 c3         1 ZHD      -0.079100
     16 C18        173.2090   155.3520   159.7340 c3         1 ZHD      -0.067400
     17 C19        173.8610   156.4390   158.8840 c3         1 ZHD      -0.112400
     18 C25        170.3440   158.1070   162.2260 c3         1 ZHD      -0.080700
     19 C27        170.6900   159.5290   161.7860 c3         1 ZHD       0.156100
     20 C29        169.9100   161.9240   161.6960 c3         1 ZHD       0.105100
     21 C32        168.7620   162.8810   161.3310 c3         1 ZHD       0.168300
     22 C34        168.3140   162.6590   159.9170 c2         1 ZHD      -0.166200
     23 C35        168.9090   163.1420   158.8210 ce         1 ZHD      -0.065200
     24 C36        170.1560   163.9830   158.8370 c3         1 ZHD      -0.059900
     25 C37        168.4390   162.8030   157.4700 ce         1 ZHD      -0.136000
     26 C38        167.1870   162.8170   156.9870 cf         1 ZHD      -0.064200
     27 C39        165.9620   163.2020   157.7640 c3         1 ZHD      -0.056900
     28 C40        166.9400   162.3490   155.6140 cf         1 ZHD      -0.136000
     29 C41        167.5740   162.7010   154.4890 c2         1 ZHD      -0.135400
     30 C42        168.5980   163.7880   154.3780 c3         1 ZHD      -0.058900
     31 C43        167.3050   161.8880   153.2440 c3         1 ZHD       0.187300
     32 C45        165.7690   163.3750   152.1910 c6         1 ZHD       0.311900
     33 C46        165.8050   164.5100   151.1660 c6         1 ZHD       0.089100
     34 C48        165.8200   163.9560   149.7440 c6         1 ZHD       0.156100
     35 C50        164.6330   163.0230   149.5640 c6         1 ZHD       0.126100
     36 C52        164.6310   161.9480   150.6590 c6         1 ZHD       0.112100
     37 C53        163.3930   161.0770   150.6090 c3         1 ZHD      -0.091100
     38 C55        168.5490   161.0710   152.8350 c3         1 ZHD      -0.023500
     39 C56        168.1800   159.9500   151.8620 c3         1 ZHD      -0.081100
     40 C57        169.2040   160.5310   154.0670 c2         1 ZHD      -0.151200
     41 C58        170.5000   160.6310   154.4240 ce         1 ZHD      -0.068200
     42 C59        171.5560   161.2100   153.5260 c3         1 ZHD      -0.049900
     43 C60        170.8170   160.2160   155.7810 ce         1 ZHD      -0.119000
     44 C61        171.9750   160.2930   156.4790 cf         1 ZHD       0.092100
     45 C64        171.9380   160.0060   157.9000 cf         1 ZHD      -0.071000
     46 C65        172.8780   160.1590   158.8570 ce         1 ZHD      -0.149400
     47 C66        174.2910   160.6360   158.6880 c3         1 ZHD      -0.046900
     48 C67        172.5250   159.8100   160.2520 c          1 ZHD       0.653300
     49 C71        171.2290   156.0440   163.4330 c6         1 ZHD       0.099100
     50 C74        172.3980   155.0640   163.5120 c6         1 ZHD       0.109100
     51 C76        175.7860   153.2940   163.6040 c6         1 ZHD      -0.150400
     52 C77        177.1900   153.7940   163.9360 c6         1 ZHD       0.130100
     53 C80        181.3070   151.8890   163.9050 c6         1 ZHD       0.121100
     54 C81        181.4160   151.2450   165.2720 c3         1 ZHD      -0.091100
     55 O01        182.8330   152.0890   161.9930 oh         1 ZHD      -0.594800
     56 O04        182.6970   154.2720   164.8650 oh         1 ZHD      -0.602800
     57 O08        179.2330   154.5670   162.8720 os         1 ZHD      -0.378600
     58 O12        175.9180   154.3010   161.4280 os         1 ZHD      -0.442600
     59 O14        173.9040   153.6850   162.2030 os         1 ZHD      -0.392600
     60 O21        172.7510   156.7450   156.6820 os         1 ZHD      -0.417600
     61 O23        171.9410   156.6590   161.2290 os         1 ZHD      -0.442600
     62 O30        170.4400   162.2450   162.9670 os         1 ZHD      -0.420600
     63 O33        167.6420   162.7020   162.1700 oh         1 ZHD      -0.595800
     64 O44        166.9780   162.6930   152.1250 os         1 ZHD      -0.416600
     65 O47        166.9290   165.3400   151.3230 oh         1 ZHD      -0.585800
     66 O49        165.7260   164.9890   148.7950 oh         1 ZHD      -0.587800
     67 O51        164.7260   162.4380   148.2880 oh         1 ZHD      -0.577800
     68 O54        164.6670   162.5460   151.9500 os         1 ZHD      -0.428600
     69 O62        173.1340   160.7110   155.9020 os         1 ZHD      -0.345900
     70 O68        171.2440   159.5600   160.4550 os         1 ZHD      -0.426900
     71 O69        173.3590   159.7840   161.1400 o          1 ZHD      -0.572000
     72 O70        172.6340   157.8770   163.0790 oh         1 ZHD      -0.618800
     73 O72        170.9590   156.5340   164.7260 os         1 ZHD      -0.398600
     74 O75        172.1020   153.9780   164.3540 oh         1 ZHD      -0.588800
     75 O78        177.1600   155.0450   164.5910 oh         1 ZHD      -0.583800
     76 O79        180.3590   152.9460   163.9910 os         1 ZHD      -0.452600
     77 H101       177.1090   155.8680   162.0600 h1         1 ZHD       0.064700
     78 H131       175.0240   155.2130   163.0310 h2         1 ZHD       0.039700
     79 H171       173.9360   156.2540   161.5380 h1         1 ZHD       0.057700
     80 H201       173.8340   155.0650   157.2150 h1         1 ZHD       0.040700
     81 H202       174.7210   156.5550   156.9080 h1         1 ZHD       0.040700
     82 H221       170.7540   156.7700   156.3820 h1         1 ZHD       0.028700
     83 H222       171.3490   155.2620   157.1000 h1         1 ZHD       0.028700
     84 H223       171.2070   156.7280   158.0880 h1         1 ZHD       0.028700
     85 H281       168.8650   160.2930   162.6280 hc         1 ZHD       0.071700
     86 H282       168.8620   160.2240   160.8770 hc         1 ZHD       0.071700
     87 H021       183.4760   151.9470   163.9560 h1         1 ZHD       0.055700
     88 H052       184.1410   155.5330   163.0940 hc         1 ZHD       0.047367
     89 H051       184.9220   154.0190   163.5600 hc         1 ZHD       0.047367
     90 H053       184.2490   154.2070   161.9390 hc         1 ZHD       0.047367
     91 H061       181.4240   155.5660   163.1120 hc         1 ZHD       0.074700
     92 H062       181.8620   154.6900   161.6570 hc         1 ZHD       0.074700
     93 H071       180.2440   153.0470   161.9500 h2         1 ZHD       0.028700
     94 H091       178.0890   152.9790   162.1830 h1         1 ZHD       0.052700
     95 H111       178.8680   155.4070   160.3840 hc         1 ZHD       0.044700
     96 H113       178.0250   153.9480   159.8560 hc         1 ZHD       0.044700
     97 H112       177.2980   155.5410   159.6030 hc         1 ZHD       0.044700
     98 H163       171.3700   152.8680   162.2680 hc         1 ZHD       0.050700
     99 H162       170.7720   154.2040   161.2880 hc         1 ZHD       0.050700
    100 H161       172.0060   153.1320   160.6490 hc         1 ZHD       0.050700
    101 H181       172.2380   155.0730   159.3210 hc         1 ZHD       0.058700
    102 H182       173.8300   154.4570   159.6820 hc         1 ZHD       0.058700
    103 H192       174.9060   156.5350   159.1930 hc         1 ZHD       0.053700
    104 H191       173.4060   157.4160   159.0660 hc         1 ZHD       0.053700
    105 H251       169.8890   158.2520   163.2110 hc         1 ZHD       0.073700
    106 H271       171.4120   159.9490   162.4890 h1         1 ZHD       0.083700
    107 H291       170.6830   162.0580   160.9240 h1         1 ZHD       0.052700
    108 H311       171.7860   163.3840   163.9640 h1         1 ZHD       0.033033
    109 H313       172.3170   162.8810   162.3480 h1         1 ZHD       0.033033
    110 H312       171.1200   164.1750   162.5300 h1         1 ZHD       0.033033
    111 H321       169.1480   163.9060   161.4350 h1         1 ZHD       0.039700
    112 H341       167.4640   161.9940   159.7990 ha         1 ZHD       0.140000
    113 H361       170.4610   164.2900   159.8350 hc         1 ZHD       0.043367
    114 H363       170.9880   163.4270   158.3970 hc         1 ZHD       0.043367
    115 H362       170.0240   164.8820   158.2320 hc         1 ZHD       0.043367
    116 H371       169.2310   162.5210   156.7800 ha         1 ZHD       0.133000
    117 H391       166.2030   163.7400   158.6780 hc         1 ZHD       0.045367
    118 H392       165.3080   163.8290   157.1550 hc         1 ZHD       0.045367
    119 H393       165.3810   162.3200   158.0430 hc         1 ZHD       0.045367
    120 H401       166.1580   161.5950   155.5310 ha         1 ZHD       0.124000
    121 H423       168.5940   164.4360   155.2520 hc         1 ZHD       0.048700
    122 H421       169.6050   163.3750   154.2800 hc         1 ZHD       0.048700
    123 H422       168.4200   164.4010   153.4940 hc         1 ZHD       0.048700
    124 H431       166.4900   161.1810   153.4580 h1         1 ZHD       0.047700
    125 H451       165.6030   163.7860   153.1960 h2         1 ZHD       0.073700
    126 H461       164.8760   165.0830   151.2920 h1         1 ZHD       0.052700
    127 H481       166.7440   163.3750   149.5990 h1         1 ZHD       0.071700
    128 H501       163.7120   163.6190   149.6600 h1         1 ZHD       0.046700
    129 H521       165.5150   161.3140   150.5110 h1         1 ZHD       0.061700
    130 H532       163.4090   160.3380   151.4110 hc         1 ZHD       0.045033
    131 H531       162.4830   161.6730   150.7080 hc         1 ZHD       0.045033
    132 H533       163.3410   160.5290   149.6690 hc         1 ZHD       0.045033
    133 H551       169.2300   161.7600   152.3300 hc         1 ZHD       0.073700
    134 H563       169.0730   159.4220   151.5270 hc         1 ZHD       0.039033
    135 H562       167.5200   159.2230   152.3380 hc         1 ZHD       0.039033
    136 H561       167.6720   160.3390   150.9790 hc         1 ZHD       0.039033
    137 H571       168.5280   160.0510   154.7710 ha         1 ZHD       0.118000
    138 H591       172.0320   162.0860   153.9660 hc         1 ZHD       0.045700
    139 H593       172.3430   160.4820   153.3280 hc         1 ZHD       0.045700
    140 H592       171.1490   161.5040   152.5610 hc         1 ZHD       0.045700
    141 H601       169.9630   159.8730   156.3550 ha         1 ZHD       0.125000
    142 H632       174.8570   160.1380   155.0060 h1         1 ZHD       0.039367
    143 H633       174.3740   159.0870   156.3510 h1         1 ZHD       0.039367
    144 H631       173.5210   158.9860   154.7990 h1         1 ZHD       0.039367
    145 H641       170.9690   159.6430   158.2190 ha         1 ZHD       0.142000
    146 H662       174.5690   161.3190   159.4900 hc         1 ZHD       0.054033
    147 H663       174.9940   159.8000   158.7260 hc         1 ZHD       0.054033
    148 H661       174.4350   161.1550   157.7480 hc         1 ZHD       0.054033
    149 H711       170.3520   155.5170   163.0390 h1         1 ZHD       0.061700
    150 H732       169.6040   156.6310   166.2270 h1         1 ZHD       0.032033
    151 H731       168.8770   156.6720   164.6150 h1         1 ZHD       0.032033
    152 H733       169.4980   155.1460   165.2690 h1         1 ZHD       0.032033
    153 H741       173.2610   155.6190   163.9050 h1         1 ZHD       0.061700
    154 H762       175.1790   153.2460   164.5120 hc         1 ZHD       0.067200
    155 H761       175.8430   152.2790   163.1990 hc         1 ZHD       0.067200
    156 H771       177.6970   153.0440   164.5550 h1         1 ZHD       0.053700
    157 H801       180.9260   151.1360   163.1980 h1         1 ZHD       0.031700
    158 H812       180.4390   150.9250   165.6330 hc         1 ZHD       0.048367
    159 H811       182.0530   150.3630   165.2110 hc         1 ZHD       0.048367
    160 H813       181.8540   151.9200   166.0080 hc         1 ZHD       0.048367
    161 H011       182.8080   151.1330   161.8860 ho         1 ZHD       0.405000
    162 H041       181.7880   154.1700   165.1680 ho         1 ZHD       0.425000
    163 H331       167.9320   162.8190   163.0810 ho         1 ZHD       0.416000
    164 H471       166.7580   165.9660   152.0330 ho         1 ZHD       0.410000
    165 H491       166.4540   165.6000   148.9510 ho         1 ZHD       0.418000
    166 H511       163.8550   162.1280   148.0240 ho         1 ZHD       0.406000
    167 H701       172.9630   158.5800   162.4910 ho         1 ZHD       0.448000
    168 H751       172.0720   154.3050   165.2580 ho         1 ZHD       0.412000
    169 H781       176.6470   154.9510   165.4000 ho         1 ZHD       0.401000
    170 C26        169.3020   157.4530   161.3200 c3         1 ZHD      -0.077100
    171 C31        171.4570   163.2170   162.9390 c3         1 ZHD       0.118700
    172 C20        173.8230   156.1540   157.3800 c3         1 ZHD       0.136400
    173 C73        169.6750   156.2250   165.2190 c3         1 ZHD       0.117700
    174 H263       169.0970   156.4250   161.6180 hc         1 ZHD       0.039367
    175 C63        174.0090   159.6670   155.5000 c3         1 ZHD       0.126700
    176 H261       168.3540   157.9880   161.3750 hc         1 ZHD       0.039367
    177 H262       169.6150   157.4350   160.2770 hc         1 ZHD       0.039367
@<TRIPOS>BOND
     1     1    13 1   
     2     1    14 1   
     3     1    58 1   
     4     1    77 1   
     5     2    51 1   
     6     2    58 1   
     7     2    59 1   
     8     2    78 1   
     9     3     4 1   
    10     3    15 1   
    11     3    50 1   
    12     3    59 1   
    13     4    16 1   
    14     4    61 1   
    15     4    79 1   
    16     5    60 1   
    17     5    82 1   
    18     5    83 1   
    19     5    84 1   
    20     6    18 1   
    21     6    49 1   
    22     6    61 1   
    23     6    72 1   
    24     7    19 1   
    25     7    20 1   
    26     7    85 1   
    27     7    86 1   
    28     8     9 1   
    29     8    53 1   
    30     8    55 1   
    31     8    87 1   
    32     9    10 1   
    33     9    11 1   
    34     9    56 1   
    35    10    88 1   
    36    10    89 1   
    37    10    90 1   
    38    11    12 1   
    39    11    91 1   
    40    11    92 1   
    41    12    57 1   
    42    12    76 1   
    43    12    93 1   
    44    13    52 1   
    45    13    57 1   
    46    13    94 1   
    47    14    95 1   
    48    14    96 1   
    49    14    97 1   
    50    15    98 1   
    51    15    99 1   
    52    15   100 1   
    53    16    17 1   
    54    16   101 1   
    55    16   102 1   
    56    17   103 1   
    57    17   104 1   
    58    17   172 1   
    59    18    19 1   
    60    18   105 1   
    61    18   170 1   
    62    19    70 1   
    63    19   106 1   
    64    20    21 1   
    65    20    62 1   
    66    20   107 1   
    67    21    22 1   
    68    21    63 1   
    69    21   111 1   
    70    22    23 2   
    71    22   112 1   
    72    23    24 1   
    73    23    25 1   
    74    24   113 1   
    75    24   114 1   
    76    24   115 1   
    77    25    26 2   
    78    25   116 1   
    79    26    27 1   
    80    26    28 1   
    81    27   117 1   
    82    27   118 1   
    83    27   119 1   
    84    28    29 2   
    85    28   120 1   
    86    29    30 1   
    87    29    31 1   
    88    30   121 1   
    89    30   122 1   
    90    30   123 1   
    91    31    38 1   
    92    31    64 1   
    93    31   124 1   
    94    32    33 1   
    95    32    64 1   
    96    32    68 1   
    97    32   125 1   
    98    33    34 1   
    99    33    65 1   
   100    33   126 1   
   101    34    35 1   
   102    34    66 1   
   103    34   127 1   
   104    35    36 1   
   105    35    67 1   
   106    35   128 1   
   107    36    37 1   
   108    36    68 1   
   109    36   129 1   
   110    37   130 1   
   111    37   131 1   
   112    37   132 1   
   113    38    39 1   
   114    38    40 1   
   115    38   133 1   
   116    39   134 1   
   117    39   135 1   
   118    39   136 1   
   119    40    41 2   
   120    40   137 1   
   121    41    42 1   
   122    41    43 1   
   123    42   138 1   
   124    42   139 1   
   125    42   140 1   
   126    43    44 2   
   127    43   141 1   
   128    44    45 1   
   129    44    69 1   
   130    45    46 2   
   131    45   145 1   
   132    46    47 1   
   133    46    48 1   
   134    47   146 1   
   135    47   147 1   
   136    47   148 1   
   137    48    70 1   
   138    48    71 2   
   139    49    50 1   
   140    49    73 1   
   141    49   149 1   
   142    50    74 1   
   143    50   153 1   
   144    51    52 1   
   145    51   154 1   
   146    51   155 1   
   147    52    75 1   
   148    52   156 1   
   149    53    54 1   
   150    53    76 1   
   151    53   157 1   
   152    54   158 1   
   153    54   159 1   
   154    54   160 1   
   155    55   161 1   
   156    56   162 1   
   157    60   172 1   
   158    62   171 1   
   159    63   163 1   
   160    65   164 1   
   161    66   165 1   
   162    67   166 1   
   163    69   175 1   
   164    72   167 1   
   165    73   173 1   
   166    74   168 1   
   167    75   169 1   
   168    80   172 1   
   169    81   172 1   
   170   108   171 1   
   171   109   171 1   
   172   110   171 1   
   173   142   175 1   
   174   143   175 1   
   175   144   175 1   
   176   150   173 1   
   177   151   173 1   
   178   152   173 1   
   179   170   174 1   
   180   170   176 1   
   181   170   177 1   
@<TRIPOS>SUBSTRUCTURE
     1 ZHD         1 TEMP              0 ****  ****    0 ROOT
