@<TRIPOS>MOLECULE
ZHD
  177   181     1     0     0
SMALL
No Charge or Current Charge


@<TRIPOS>ATOM
      1 C10        177.2940   155.0030   161.9290 c6         1 ZHD       0.178300
      2 C13        175.3460   153.7510   162.5880 c6         1 ZHD       0.397300
      3 C15        172.9670   154.2590   162.0320 c6         1 ZHD       0.180000
      4 C17        173.2540   155.4530   161.0440 c6         1 ZHD       0.157300
      5 C22        173.8250   153.5360   156.5700 c3         1 ZHD       0.142900
      6 C24        171.7740   157.0000   162.2650 c6         1 ZHD       0.402000
      7 C28        169.6790   160.3670   161.4460 c3         1 ZHD      -0.075400
      8 C02        182.7390   152.7130   164.9280 c6         1 ZHD       0.104300
      9 C03        182.8310   154.2020   164.4150 c6         1 ZHD       0.207000
     10 C05        184.2940   154.6280   164.1090 c3         1 ZHD      -0.078100
     11 C06        181.9240   154.3700   163.1590 c6         1 ZHD      -0.126400
     12 C07        180.5520   153.6630   163.3190 c6         1 ZHD       0.392300
     13 C09        178.2940   153.8990   162.3910 c6         1 ZHD       0.152300
     14 C11        177.8130   155.8180   160.7180 c3         1 ZHD      -0.087100
     15 C16        171.7730   153.3870   161.5140 c3         1 ZHD      -0.079100
     16 C18        173.5450   154.9960   159.5810 c3         1 ZHD      -0.067400
     17 C19        174.1090   156.0970   158.6560 c3         1 ZHD      -0.112400
     18 C25        170.5300   157.9460   162.0090 c3         1 ZHD      -0.080700
     19 C27        170.8510   159.3490   161.3950 c3         1 ZHD       0.179300
     20 C29        170.1730   161.8390   161.3950 c3         1 ZHD       0.128300
     21 C32        169.0500   162.9050   161.1460 c3         1 ZHD       0.191500
     22 C34        168.4660   162.8300   159.7510 c2         1 ZHD      -0.216200
     23 C35        168.9570   163.4300   158.6390 ce         1 ZHD      -0.065200
     24 C36        170.2290   164.2650   158.6620 c3         1 ZHD      -0.059900
     25 C37        168.3620   163.2360   157.3070 ce         1 ZHD      -0.186000
     26 C38        167.0430   163.2110   156.9460 cf         1 ZHD      -0.064200
     27 C39        165.9010   163.4590   157.9160 c3         1 ZHD      -0.056900
     28 C40        166.6380   162.8980   155.5760 cf         1 ZHD      -0.186000
     29 C41        167.2120   163.3250   154.4180 c2         1 ZHD      -0.135400
     30 C42        168.3190   164.3740   154.3260 c3         1 ZHD      -0.058900
     31 C43        166.8820   162.6330   153.0870 c3         1 ZHD       0.210500
     32 C45        165.3960   164.3930   152.2450 c6         1 ZHD       0.358300
     33 C46        165.2960   165.4940   151.1360 c6         1 ZHD       0.112300
     34 C48        165.0260   164.8270   149.7550 c6         1 ZHD       0.179300
     35 C50        163.7760   163.9020   149.8250 c6         1 ZHD       0.149300
     36 C52        163.9860   162.8590   150.9650 c6         1 ZHD       0.135300
     37 C53        162.7520   161.9490   151.1930 c3         1 ZHD      -0.091100
     38 C55        168.0590   161.7320   152.5990 c3         1 ZHD      -0.023500
     39 C56        167.6230   160.7300   151.5090 c3         1 ZHD      -0.081100
     40 C57        168.6930   161.0140   153.7890 c2         1 ZHD      -0.201200
     41 C58        169.9990   160.7830   154.0590 ce         1 ZHD      -0.068200
     42 C59        171.1410   161.1540   153.1210 c3         1 ZHD      -0.049900
     43 C60        170.3450   160.3330   155.4180 ce         1 ZHD      -0.169000
     44 C61        171.3810   159.5620   155.8490 cf         1 ZHD       0.092100
     45 C64        171.5070   159.2410   157.2720 cf         1 ZHD      -0.121000
     46 C65        172.5950   159.4060   158.0990 ce         1 ZHD      -0.149400
     47 C66        173.9480   159.9160   157.6120 c3         1 ZHD      -0.046900
     48 C67        172.4810   159.2360   159.5950 c          1 ZHD       0.604300
     49 C71        171.4560   155.8830   163.3460 c6         1 ZHD       0.122300
     50 C74        172.6410   154.8820   163.4400 c6         1 ZHD       0.132300
     51 C76        176.1870   152.5350   163.0120 c6         1 ZHD      -0.150400
     52 C77        177.6090   152.9610   163.4470 c6         1 ZHD       0.153300
     53 C80        181.2380   152.3200   165.1990 c6         1 ZHD       0.144300
     54 C81        180.9190   152.1560   166.7040 c3         1 ZHD      -0.091100
     55 O01        183.3160   151.7970   163.9670 oh         1 ZHD      -0.717000
     56 O04        182.3510   155.0900   165.4310 oh         1 ZHD      -0.665000
     57 O08        179.4910   154.5360   162.9130 os         1 ZHD      -0.425000
     58 O12        176.0390   154.4220   161.5250 os         1 ZHD      -0.489000
     59 O14        174.0660   153.2980   162.1020 os         1 ZHD      -0.439000
     60 O21        173.9450   154.9690   156.4810 os         1 ZHD      -0.464000
     61 O23        172.1300   156.3830   161.0080 os         1 ZHD      -0.489000
     62 O30        170.7970   162.0930   162.6770 os         1 ZHD      -0.467000
     63 O33        168.0040   162.7680   162.1130 oh         1 ZHD      -0.718000
     64 O44        166.5910   163.6060   152.0660 os         1 ZHD      -0.463000
     65 O47        166.4960   166.3020   151.0680 oh         1 ZHD      -0.708000
     66 O49        164.8560   165.8370   148.7420 oh         1 ZHD      -0.650000
     67 O51        163.5570   163.2710   148.5480 oh         1 ZHD      -0.700000
     68 O54        164.2300   163.5360   152.2200 os         1 ZHD      -0.475000
     69 O62        172.1960   158.9480   154.9330 os         1 ZHD      -0.369100
     70 O68        171.1750   159.2060   160.0010 os         1 ZHD      -0.450100
     71 O69        173.4320   159.1980   160.3670 o          1 ZHD      -0.523000
     72 O70        172.8920   157.7900   162.6450 oh         1 ZHD      -0.741000
     73 O72        171.1790   156.4100   164.6760 os         1 ZHD      -0.445000
     74 O75        172.3940   153.8920   164.4650 oh         1 ZHD      -0.711000
     75 O78        177.5740   153.5790   164.7400 oh         1 ZHD      -0.706000
     76 O79        180.3340   153.3350   164.7040 os         1 ZHD      -0.499000
     77 H101       177.1100   155.6980   162.7620 h1         1 ZHD       0.064700
     78 H131       175.2230   154.4230   163.4490 h2         1 ZHD       0.039700
     79 H171       174.1390   155.9980   161.4000 h1         1 ZHD       0.057700
     80 H201       175.6700   154.9000   157.6970 h1         1 ZHD       0.040700
     81 H202       175.3380   156.4530   156.9200 h1         1 ZHD       0.040700
     82 H221       173.1310   153.1670   155.8050 h1         1 ZHD       0.028700
     83 H222       174.7980   153.0540   156.4050 h1         1 ZHD       0.028700
     84 H223       173.4450   153.2190   157.5470 h1         1 ZHD       0.028700
     85 H281       169.0990   160.2200   162.3650 hc         1 ZHD       0.071700
     86 H282       168.9950   160.1780   160.6100 hc         1 ZHD       0.071700
     87 H021       183.3010   152.6460   165.8720 h1         1 ZHD       0.055700
     88 H052       184.3460   155.6790   163.8000 hc         1 ZHD       0.047367
     89 H051       184.9350   154.5100   164.9910 hc         1 ZHD       0.047367
     90 H053       184.7300   154.0280   163.3020 hc         1 ZHD       0.047367
     91 H061       181.7820   155.4360   162.9340 hc         1 ZHD       0.074700
     92 H062       182.4250   153.9420   162.2820 hc         1 ZHD       0.074700
     93 H071       180.5390   152.7460   162.7110 h2         1 ZHD       0.028700
     94 H091       178.5710   153.2960   161.5140 h1         1 ZHD       0.052700
     95 H111       178.7500   156.3320   160.9600 hc         1 ZHD       0.044700
     96 H113       177.9980   155.1700   159.8530 hc         1 ZHD       0.044700
     97 H112       177.0850   156.5810   160.4190 hc         1 ZHD       0.044700
     98 H163       171.4420   152.6680   162.2710 hc         1 ZHD       0.050700
     99 H162       170.9050   153.9940   161.2330 hc         1 ZHD       0.050700
    100 H161       172.0570   152.8060   160.6280 hc         1 ZHD       0.050700
    101 H181       172.6280   154.6010   159.1280 hc         1 ZHD       0.058700
    102 H182       174.2620   154.1680   159.6000 hc         1 ZHD       0.058700
    103 H192       174.8050   156.7190   159.2310 hc         1 ZHD       0.053700
    104 H191       173.2910   156.7520   158.3410 hc         1 ZHD       0.053700
    105 H251       170.1440   158.1910   163.0030 hc         1 ZHD       0.073700
    106 H271       171.6720   159.8070   161.9630 h1         1 ZHD       0.083700
    107 H291       170.9130   161.9220   160.5870 h1         1 ZHD       0.052700
    108 H311       172.1650   163.2770   163.7240 h1         1 ZHD       0.033033
    109 H313       172.4380   163.1970   161.9720 h1         1 ZHD       0.033033
    110 H312       171.1030   164.1780   162.6300 h1         1 ZHD       0.033033
    111 H321       169.4970   163.9020   161.2520 h1         1 ZHD       0.039700
    112 H341       167.5860   162.1920   159.6860 ha         1 ZHD       0.190000
    113 H361       170.0930   165.1730   159.2610 hc         1 ZHD       0.043367
    114 H363       171.0700   163.7060   159.0880 hc         1 ZHD       0.043367
    115 H362       170.5310   164.5840   157.6570 hc         1 ZHD       0.043367
    116 H371       169.0930   163.0600   156.5190 ha         1 ZHD       0.183000
    117 H391       166.1810   164.1760   158.6970 hc         1 ZHD       0.045367
    118 H392       165.0250   163.8720   157.4020 hc         1 ZHD       0.045367
    119 H393       165.5860   162.5300   158.4050 hc         1 ZHD       0.045367
    120 H401       165.8370   162.1590   155.5060 ha         1 ZHD       0.174000
    121 H423       168.3460   165.0140   155.2150 hc         1 ZHD       0.048700
    122 H421       169.3050   163.9060   154.2210 hc         1 ZHD       0.048700
    123 H422       168.1810   165.0440   153.4700 hc         1 ZHD       0.048700
    124 H431       166.0110   161.9800   153.2380 h1         1 ZHD       0.047700
    125 H451       165.4440   164.8970   153.2230 h2         1 ZHD       0.073700
    126 H461       164.4350   166.1330   151.3830 h1         1 ZHD       0.052700
    127 H481       165.8960   164.1980   149.5080 h1         1 ZHD       0.071700
    128 H501       162.9040   164.5220   150.0850 h1         1 ZHD       0.046700
    129 H521       164.8490   162.2190   150.7270 h1         1 ZHD       0.061700
    130 H532       162.9250   161.2580   152.0260 hc         1 ZHD       0.045033
    131 H531       161.8590   162.5410   151.4240 hc         1 ZHD       0.045033
    132 H533       162.5350   161.3460   150.3040 hc         1 ZHD       0.045033
    133 H551       168.7960   162.4040   152.1450 hc         1 ZHD       0.073700
    134 H563       168.4800   160.1370   151.1690 hc         1 ZHD       0.039033
    135 H562       166.8600   160.0430   151.8950 hc         1 ZHD       0.039033
    136 H561       167.2070   161.2570   150.6420 hc         1 ZHD       0.039033
    137 H571       167.9580   160.7240   154.5400 ha         1 ZHD       0.168000
    138 H591       172.0770   161.3160   153.6680 hc         1 ZHD       0.045700
    139 H593       171.3180   160.3580   152.3880 hc         1 ZHD       0.045700
    140 H592       170.9440   162.0790   152.5700 hc         1 ZHD       0.045700
    141 H601       169.6650   160.6850   156.1920 ha         1 ZHD       0.175000
    142 H632       173.3890   157.3360   154.3480 h1         1 ZHD       0.039367
    143 H633       173.6520   157.8750   156.0110 h1         1 ZHD       0.039367
    144 H631       172.1830   156.9610   155.5960 h1         1 ZHD       0.039367
    145 H641       170.5610   158.9440   157.7260 ha         1 ZHD       0.192000
    146 H662       174.3250   160.7170   158.2590 hc         1 ZHD       0.054033
    147 H663       174.6990   159.1170   157.6150 hc         1 ZHD       0.054033
    148 H661       173.9000   160.3280   156.5980 hc         1 ZHD       0.054033
    149 H711       170.5740   155.3200   163.0140 h1         1 ZHD       0.061700
    150 H732       169.7300   156.7910   166.1370 h1         1 ZHD       0.032033
    151 H731       169.1330   156.8650   164.4650 h1         1 ZHD       0.032033
    152 H733       169.4880   155.2930   165.2140 h1         1 ZHD       0.032033
    153 H741       173.5110   155.4830   163.7420 h1         1 ZHD       0.061700
    154 H762       175.6840   151.9990   163.8270 hc         1 ZHD       0.067200
    155 H761       176.2560   151.8330   162.1700 hc         1 ZHD       0.067200
    156 H771       178.2110   152.0420   163.5140 h1         1 ZHD       0.053700
    157 H801       181.0000   151.3710   164.6960 h1         1 ZHD       0.031700
    158 H812       179.8640   151.8970   166.8550 hc         1 ZHD       0.048367
    159 H811       181.5220   151.3550   167.1470 hc         1 ZHD       0.048367
    160 H813       181.1240   153.0770   167.2610 hc         1 ZHD       0.048367
    161 H011       183.4470   150.9340   164.4250 ho         1 ZHD       0.504000
    162 H041       181.4060   154.8350   165.5420 ho         1 ZHD       0.464000
    163 H331       168.4610   162.6760   162.9810 ho         1 ZHD       0.515000
    164 H471       167.2470   165.6870   151.2490 ho         1 ZHD       0.509000
    165 H491       165.4870   166.5520   148.9890 ho         1 ZHD       0.457000
    166 H511       163.7150   163.9820   147.8820 ho         1 ZHD       0.505000
    167 H701       173.1600   158.2310   161.7980 ho         1 ZHD       0.547000
    168 H751       172.0230   154.3950   165.2270 ho         1 ZHD       0.511000
    169 H781       178.5320   153.7140   164.9580 ho         1 ZHD       0.500000
    170 C26        169.3550   157.2380   161.2680 c3         1 ZHD      -0.077100
    171 C31        171.6630   163.2430   162.7490 c3         1 ZHD       0.141900
    172 C20        174.8660   155.5880   157.4040 c3         1 ZHD       0.159600
    173 C73        169.8170   156.3370   165.1420 c3         1 ZHD       0.140900
    174 H263       169.0620   156.3120   161.7730 hc         1 ZHD       0.039367
    175 C63        172.8880   157.7250   155.2430 c3         1 ZHD       0.149900
    176 H261       168.4660   157.8770   161.2310 hc         1 ZHD       0.039367
    177 H262       169.6330   156.9860   160.2370 hc         1 ZHD       0.039367
@<TRIPOS>BOND
     1     1    13 1   
     2     1    14 1   
     3     1    58 1   
     4     1    77 1   
     5     2    51 1   
     6     2    58 1   
     7     2    59 1   
     8     2    78 1   
     9     3     4 1   
    10     3    15 1   
    11     3    50 1   
    12     3    59 1   
    13     4    16 1   
    14     4    61 1   
    15     4    79 1   
    16     5    60 1   
    17     5    82 1   
    18     5    83 1   
    19     5    84 1   
    20     6    18 1   
    21     6    49 1   
    22     6    61 1   
    23     6    72 1   
    24     7    19 1   
    25     7    20 1   
    26     7    85 1   
    27     7    86 1   
    28     8     9 1   
    29     8    53 1   
    30     8    55 1   
    31     8    87 1   
    32     9    10 1   
    33     9    11 1   
    34     9    56 1   
    35    10    88 1   
    36    10    89 1   
    37    10    90 1   
    38    11    12 1   
    39    11    91 1   
    40    11    92 1   
    41    12    57 1   
    42    12    76 1   
    43    12    93 1   
    44    13    52 1   
    45    13    57 1   
    46    13    94 1   
    47    14    95 1   
    48    14    96 1   
    49    14    97 1   
    50    15    98 1   
    51    15    99 1   
    52    15   100 1   
    53    16    17 1   
    54    16   101 1   
    55    16   102 1   
    56    17   103 1   
    57    17   104 1   
    58    17   172 1   
    59    18    19 1   
    60    18   105 1   
    61    18   170 1   
    62    19    70 1   
    63    19   106 1   
    64    20    21 1   
    65    20    62 1   
    66    20   107 1   
    67    21    22 1   
    68    21    63 1   
    69    21   111 1   
    70    22    23 2   
    71    22   112 1   
    72    23    24 1   
    73    23    25 1   
    74    24   113 1   
    75    24   114 1   
    76    24   115 1   
    77    25    26 2   
    78    25   116 1   
    79    26    27 1   
    80    26    28 1   
    81    27   117 1   
    82    27   118 1   
    83    27   119 1   
    84    28    29 2   
    85    28   120 1   
    86    29    30 1   
    87    29    31 1   
    88    30   121 1   
    89    30   122 1   
    90    30   123 1   
    91    31    38 1   
    92    31    64 1   
    93    31   124 1   
    94    32    33 1   
    95    32    64 1   
    96    32    68 1   
    97    32   125 1   
    98    33    34 1   
    99    33    65 1   
   100    33   126 1   
   101    34    35 1   
   102    34    66 1   
   103    34   127 1   
   104    35    36 1   
   105    35    67 1   
   106    35   128 1   
   107    36    37 1   
   108    36    68 1   
   109    36   129 1   
   110    37   130 1   
   111    37   131 1   
   112    37   132 1   
   113    38    39 1   
   114    38    40 1   
   115    38   133 1   
   116    39   134 1   
   117    39   135 1   
   118    39   136 1   
   119    40    41 2   
   120    40   137 1   
   121    41    42 1   
   122    41    43 1   
   123    42   138 1   
   124    42   139 1   
   125    42   140 1   
   126    43    44 2   
   127    43   141 1   
   128    44    45 1   
   129    44    69 1   
   130    45    46 2   
   131    45   145 1   
   132    46    47 1   
   133    46    48 1   
   134    47   146 1   
   135    47   147 1   
   136    47   148 1   
   137    48    70 1   
   138    48    71 2   
   139    49    50 1   
   140    49    73 1   
   141    49   149 1   
   142    50    74 1   
   143    50   153 1   
   144    51    52 1   
   145    51   154 1   
   146    51   155 1   
   147    52    75 1   
   148    52   156 1   
   149    53    54 1   
   150    53    76 1   
   151    53   157 1   
   152    54   158 1   
   153    54   159 1   
   154    54   160 1   
   155    55   161 1   
   156    56   162 1   
   157    60   172 1   
   158    62   171 1   
   159    63   163 1   
   160    65   164 1   
   161    66   165 1   
   162    67   166 1   
   163    69   175 1   
   164    72   167 1   
   165    73   173 1   
   166    74   168 1   
   167    75   169 1   
   168    80   172 1   
   169    81   172 1   
   170   108   171 1   
   171   109   171 1   
   172   110   171 1   
   173   142   175 1   
   174   143   175 1   
   175   144   175 1   
   176   150   173 1   
   177   151   173 1   
   178   152   173 1   
   179   170   174 1   
   180   170   176 1   
   181   170   177 1   
@<TRIPOS>SUBSTRUCTURE
     1 ZHD         1 TEMP              0 ****  ****    0 ROOT
