@<TRIPOS>MOLECULE
ZHE
   49    50     1     0     0
SMALL
No Charge or Current Charge


@<TRIPOS>ATOM
      1 C1          28.3410    62.6430   -13.7270 c3         1 ZHE      -0.177100
      2 C2          29.4580    63.5680   -14.1880 c          1 ZHE       0.600100
      3 O1          29.5090    64.7470   -13.8730 o          1 ZHE      -0.587100
      4 N1          30.3970    62.9750   -15.0040 ns         1 ZHE      -0.512900
      5 C3          31.6580    63.6130   -15.4700 c6         1 ZHE       0.039700
      6 C4          32.0180    63.1460   -16.9090 c6         1 ZHE       0.164300
      7 O2          30.9670    63.4840   -17.8320 oh         1 ZHE      -0.644000
      8 C5          33.3650    63.7730   -17.3810 c6         1 ZHE       0.147300
      9 O3          33.6990    63.2820   -18.6930 oh         1 ZHE      -0.711000
     10 C6          34.4770    63.4560   -16.3350 c6         1 ZHE       0.147300
     11 C7          35.8430    64.1320   -16.6890 c3         1 ZHE       0.169600
     12 O4          36.8710    63.8920   -15.7060 oh         1 ZHE      -0.715000
     13 O5          34.0550    63.9250   -15.0290 os         1 ZHE      -0.467000
     14 C8          32.8630    63.2880   -14.5330 c6         1 ZHE       0.380300
     15 O6          32.6100    63.7700   -13.2010 os         1 ZHE      -0.429000
     16 C9          33.5410    63.3980   -12.1650 c3         1 ZHE       0.158600
     17 C10         33.4450    61.8730   -11.8360 c6         1 ZHE      -0.091700
     18 C11         34.4060    61.5010   -10.6710 c6         1 ZHE      -0.071400
     19 C12         34.3360    59.9910   -10.3360 c6         1 ZHE      -0.073400
     20 C13         32.8870    59.5570   -10.0060 c6         1 ZHE      -0.075400
     21 C14         31.9210    59.9200   -11.1590 c6         1 ZHE      -0.073400
     22 C15         31.9910    61.4290   -11.4970 c6         1 ZHE      -0.071400
     23 H1          27.6070    63.1520   -13.0920 hc         1 ZHE       0.061700
     24 H2          27.8700    62.1850   -14.6040 hc         1 ZHE       0.061700
     25 H3          28.7820    61.7770   -13.2200 hc         1 ZHE       0.061700
     26 H4          30.2610    61.9870   -15.1860 hn         1 ZHE       0.305500
     27 H5          31.5280    64.7060   -15.4770 h1         1 ZHE       0.122700
     28 H6          32.1420    62.0530   -16.8850 h1         1 ZHE       0.039700
     29 H7          30.1200    63.3060   -17.3660 ho         1 ZHE       0.450000
     30 H8          33.2370    64.8660   -17.4160 h1         1 ZHE       0.063700
     31 H9          32.8430    63.2700   -19.1850 ho         1 ZHE       0.508000
     32 H10         34.6350    62.3680   -16.2870 h1         1 ZHE       0.059700
     33 H11         36.1700    63.7540   -17.6680 h1         1 ZHE       0.032700
     34 H12         35.6710    65.2110   -16.7990 h1         1 ZHE       0.032700
     35 H13         37.6610    64.4130   -15.9840 ho         1 ZHE       0.504000
     36 H14         33.0080    62.1990   -14.5130 h2         1 ZHE       0.023700
     37 H15         34.5710    63.6440   -12.4570 h1         1 ZHE       0.058700
     38 H16         33.3160    63.9630   -11.2500 h1         1 ZHE       0.058700
     39 H17         33.7830    61.3280   -12.7270 hc         1 ZHE       0.038700
     40 H18         35.4380    61.7690   -10.9370 hc         1 ZHE       0.045200
     41 H19         34.1530    62.0870    -9.7760 hc         1 ZHE       0.045200
     42 H20         34.7140    59.4050   -11.1850 hc         1 ZHE       0.036950
     43 H21         34.9940    59.7670    -9.4850 hc         1 ZHE       0.036950
     44 H22         32.5570    60.0450    -9.0780 hc         1 ZHE       0.039700
     45 H23         32.8550    58.4750    -9.8180 hc         1 ZHE       0.039700
     46 H24         30.8930    59.6470   -10.8840 hc         1 ZHE       0.036950
     47 H25         32.1720    59.3290   -12.0510 hc         1 ZHE       0.036950
     48 H26         31.6100    62.0150   -10.6490 hc         1 ZHE       0.045200
     49 H27         31.3210    61.6370   -12.3420 hc         1 ZHE       0.045200
@<TRIPOS>BOND
     1     1     2 1   
     2     1    23 1   
     3     1    24 1   
     4     1    25 1   
     5     2     3 2   
     6     2     4 1   
     7     4     5 1   
     8     4    26 1   
     9     5     6 1   
    10     5    14 1   
    11     5    27 1   
    12     6     7 1   
    13     6     8 1   
    14     6    28 1   
    15     7    29 1   
    16     8     9 1   
    17     8    10 1   
    18     8    30 1   
    19     9    31 1   
    20    10    11 1   
    21    10    13 1   
    22    10    32 1   
    23    11    12 1   
    24    11    33 1   
    25    11    34 1   
    26    12    35 1   
    27    13    14 1   
    28    14    15 1   
    29    14    36 1   
    30    15    16 1   
    31    16    17 1   
    32    16    37 1   
    33    16    38 1   
    34    17    18 1   
    35    17    22 1   
    36    17    39 1   
    37    18    19 1   
    38    18    40 1   
    39    18    41 1   
    40    19    20 1   
    41    19    42 1   
    42    19    43 1   
    43    20    21 1   
    44    20    44 1   
    45    20    45 1   
    46    21    22 1   
    47    21    46 1   
    48    21    47 1   
    49    22    48 1   
    50    22    49 1   
@<TRIPOS>SUBSTRUCTURE
     1 ZHE         1 TEMP              0 ****  ****    0 ROOT
