@<TRIPOS>MOLECULE
ZHE
   49    50     1     0     0
SMALL
abcg2


@<TRIPOS>ATOM
      1 C1          28.9500    61.7240   -13.6590 c3         1 ZHE      -0.177100
      2 C2          29.8120    62.8540   -14.1700 c          1 ZHE       0.600100
      3 O1          29.5120    64.0310   -13.9760 o          1 ZHE      -0.587100
      4 N1          30.9130    62.4790   -14.8610 ns         1 ZHE      -0.512900
      5 C3          31.8980    63.4000   -15.3900 c6         1 ZHE       0.039700
      6 C4          32.1250    63.1190   -16.8790 c6         1 ZHE       0.164300
      7 O2          30.9500    63.4050   -17.6290 oh         1 ZHE      -0.644000
      8 C5          33.2670    63.9460   -17.4460 c6         1 ZHE       0.147300
      9 O3          33.5550    63.4470   -18.7510 oh         1 ZHE      -0.711000
     10 C6          34.5040    63.8320   -16.5390 c6         1 ZHE       0.147300
     11 C7          35.6230    64.7450   -16.9850 c3         1 ZHE       0.169600
     12 O4          36.8050    64.4150   -16.2570 oh         1 ZHE      -0.715000
     13 O5          34.1630    64.1900   -15.2010 os         1 ZHE      -0.467000
     14 C8          33.2120    63.3120   -14.6140 c6         1 ZHE       0.380300
     15 O6          33.0040    63.7210   -13.3080 os         1 ZHE      -0.429000
     16 C9          33.8450    63.0820   -12.3310 c3         1 ZHE       0.158600
     17 C10         33.2490    61.7710   -11.8380 c6         1 ZHE      -0.091700
     18 C11         34.2350    61.0350   -10.9240 c6         1 ZHE      -0.071400
     19 C12         33.6530    59.7100   -10.4250 c6         1 ZHE      -0.073400
     20 C13         32.3040    59.9130    -9.7310 c6         1 ZHE      -0.075400
     21 C14         31.3210    60.6610   -10.6340 c6         1 ZHE      -0.073400
     22 C15         31.9130    61.9830   -11.1220 c6         1 ZHE      -0.071400
     23 H1          28.8280    61.8380   -12.5820 hc         1 ZHE       0.061700
     24 H2          27.9630    61.8030   -14.1180 hc         1 ZHE       0.061700
     25 H3          29.3660    60.7410   -13.8710 hc         1 ZHE       0.061700
     26 H4          31.1130    61.4930   -14.9340 hn         1 ZHE       0.305500
     27 H5          31.5030    64.4080   -15.2680 h1         1 ZHE       0.122700
     28 H6          32.3950    62.0600   -16.9980 h1         1 ZHE       0.039700
     29 H7          30.2380    62.8460   -17.2910 ho         1 ZHE       0.450000
     30 H8          32.9530    64.9940   -17.4970 h1         1 ZHE       0.063700
     31 H9          33.8580    64.1740   -19.3070 ho         1 ZHE       0.508000
     32 H10         34.8560    62.7920   -16.5640 h1         1 ZHE       0.059700
     33 H11         35.7840    64.6120   -18.0580 h1         1 ZHE       0.032700
     34 H12         35.3280    65.7840   -16.8020 h1         1 ZHE       0.032700
     35 H13         37.5060    65.0160   -16.5340 ho         1 ZHE       0.504000
     36 H14         33.6040    62.2850   -14.6520 h2         1 ZHE       0.023700
     37 H15         34.8410    62.9250   -12.7540 h1         1 ZHE       0.058700
     38 H16         33.9350    63.7920   -11.5070 h1         1 ZHE       0.058700
     39 H17         33.0690    61.1350   -12.7140 hc         1 ZHE       0.038700
     40 H18         35.1750    60.8580   -11.4560 hc         1 ZHE       0.045200
     41 H19         34.4730    61.6740   -10.0650 hc         1 ZHE       0.045200
     42 H20         33.5180    59.0380   -11.2800 hc         1 ZHE       0.036950
     43 H21         34.3580    59.2230    -9.7470 hc         1 ZHE       0.036950
     44 H22         32.4580    60.4920    -8.8130 hc         1 ZHE       0.039700
     45 H23         31.8860    58.9490    -9.4300 hc         1 ZHE       0.039700
     46 H24         30.3810    60.8430   -10.1050 hc         1 ZHE       0.036950
     47 H25         31.0770    60.0360   -11.5010 hc         1 ZHE       0.036950
     48 H26         32.0800    62.6450   -10.2620 hc         1 ZHE       0.045200
     49 H27         31.2130    62.4950   -11.7830 hc         1 ZHE       0.045200
@<TRIPOS>BOND
     1     1     2 1   
     2     1    23 1   
     3     1    24 1   
     4     1    25 1   
     5     2     3 2   
     6     2     4 1   
     7     4     5 1   
     8     4    26 1   
     9     5     6 1   
    10     5    14 1   
    11     5    27 1   
    12     6     7 1   
    13     6     8 1   
    14     6    28 1   
    15     7    29 1   
    16     8     9 1   
    17     8    10 1   
    18     8    30 1   
    19     9    31 1   
    20    10    11 1   
    21    10    13 1   
    22    10    32 1   
    23    11    12 1   
    24    11    33 1   
    25    11    34 1   
    26    12    35 1   
    27    13    14 1   
    28    14    15 1   
    29    14    36 1   
    30    15    16 1   
    31    16    17 1   
    32    16    37 1   
    33    16    38 1   
    34    17    18 1   
    35    17    22 1   
    36    17    39 1   
    37    18    19 1   
    38    18    40 1   
    39    18    41 1   
    40    19    20 1   
    41    19    42 1   
    42    19    43 1   
    43    20    21 1   
    44    20    44 1   
    45    20    45 1   
    46    21    22 1   
    47    21    46 1   
    48    21    47 1   
    49    22    48 1   
    50    22    49 1   
@<TRIPOS>SUBSTRUCTURE
     1 ZHE         1 TEMP              0 ****  ****    0 ROOT
