@<TRIPOS>MOLECULE
ZHF
   56    59     1     0     0
SMALL
abcg2


@<TRIPOS>ATOM
      1 N1         -28.4890    -9.6530     8.9090 na         1 ZHF      -0.181500
      2 C7         -23.7280    -9.4330    10.4830 ca         1 ZHF      -0.074000
      3 C8         -24.7820    -9.8880    11.2680 ca         1 ZHF      -0.118000
      4 N2         -29.9130   -11.3470     8.8040 nc         1 ZHF      -0.673000
      5 C9         -26.0920    -9.5750    10.9300 ca         1 ZHF      -0.065000
      6 O1         -23.0530    -7.0860     7.8190 o          1 ZHF      -0.608100
      7 C1         -20.6300    -8.4180     7.6280 c3         1 ZHF       0.040700
      8 C6         -23.9860    -8.6510     9.3570 ca         1 ZHF      -0.143600
      9 N3         -20.3040    -8.0540     5.2000 n          1 ZHF      -0.404800
     10 C4         -18.6320    -7.2090     9.7180 c3         1 ZHF      -0.093100
     11 C2         -19.3400    -9.0850     8.1240 c3         1 ZHF      -0.085400
     12 C15        -25.3050    -8.3290     9.0340 ca         1 ZHF      -0.040000
     13 C10        -26.3620    -8.7930     9.8060 ca         1 ZHF      -0.127300
     14 C11        -27.7870    -8.4770     9.4200 c3         1 ZHF       0.126900
     15 C14        -28.1880   -10.3440     7.7580 cd         1 ZHF      -0.220000
     16 C13        -29.0770   -11.3840     7.7070 cc         1 ZHF       0.226900
     17 C12        -29.5270   -10.2970     9.5020 cd         1 ZHF       0.385400
     18 N          -21.7470    -8.8180     8.4540 ns         1 ZHF      -0.479900
     19 C          -20.8900    -8.8020     6.1610 c          1 ZHF       0.589100
     20 O          -21.5860    -9.7840     5.9030 o          1 ZHF      -0.606100
     21 C22        -19.4930    -6.8560     5.4180 c6         1 ZHF       0.107000
     22 C21        -20.2680    -5.6040     5.0030 c6         1 ZHF      -0.025100
     23 C20        -20.8550    -5.8450     3.6470 cc         1 ZHF      -0.195300
     24 C17        -20.9920    -7.0810     3.0770 cd         1 ZHF      -0.129300
     25 C16        -20.5780    -8.3380     3.7920 c6         1 ZHF       0.159300
     26 S          -21.4270    -4.6050     2.5860 ss         1 ZHF       0.188000
     27 C19        -21.8480    -5.7560     1.3710 cc         1 ZHF      -0.231000
     28 C18        -21.5590    -7.0280     1.7680 cd         1 ZHF      -0.116000
     29 H1         -22.7120    -9.6700    10.7690 ha         1 ZHF       0.115000
     30 H2         -24.5780   -10.4820    12.1500 ha         1 ZHF       0.121000
     31 H3         -26.9100    -9.9360    11.5410 ha         1 ZHF       0.120000
     32 H4         -20.5550    -7.3370     7.7140 h1         1 ZHF       0.085700
     33 H5         -18.2860    -6.9980    10.7320 hc         1 ZHF       0.035367
     34 H6         -17.8500    -6.8920     9.0230 hc         1 ZHF       0.035367
     35 H7         -19.5110    -6.5890     9.5350 hc         1 ZHF       0.035367
     36 H8         -19.7330    -8.9880    10.2450 hc         1 ZHF       0.042700
     37 H9         -18.0600    -9.2820     9.8210 hc         1 ZHF       0.042700
     38 H10        -19.4720   -10.1690     8.0570 hc         1 ZHF       0.055200
     39 H11        -18.5320    -8.8260     7.4360 hc         1 ZHF       0.055200
     40 H12        -25.4970    -7.7160     8.1630 ha         1 ZHF       0.137000
     41 H13        -27.8080    -7.6990     8.6580 h1         1 ZHF       0.067200
     42 H14        -28.3500    -8.1230    10.2820 h1         1 ZHF       0.067200
     43 H15        -27.3900   -10.0390     7.1030 h4         1 ZHF       0.160000
     44 H16        -29.1640   -12.1480     6.9520 h4         1 ZHF       0.038100
     45 H17        -29.9540    -9.9530    10.4310 h5         1 ZHF       0.050100
     46 H18        -21.7310    -9.7420     8.8540 hn         1 ZHF       0.324500
     47 H19        -18.5950    -6.9520     4.8020 h1         1 ZHF       0.052700
     48 H20        -19.1700    -6.7880     6.4490 h1         1 ZHF       0.052700
     49 H21        -19.5940    -4.7450     4.9970 hc         1 ZHF       0.066200
     50 H22        -21.0520    -5.3960     5.7370 hc         1 ZHF       0.066200
     51 H23        -21.3640    -9.0870     3.7460 h1         1 ZHF       0.071200
     52 H24        -19.6850    -8.7680     3.3250 h1         1 ZHF       0.071200
     53 H25        -22.2840    -5.4270     0.4410 h4         1 ZHF       0.151000
     54 H26        -21.7470    -7.9010     1.1570 ha         1 ZHF       0.136000
     55 C5         -22.8980    -8.1160     8.4790 c          1 ZHF       0.612700
     56 C3         -18.9420    -8.6950     9.5490 c3         1 ZHF      -0.073400
@<TRIPOS>BOND
     1     1    14 1   
     2     1    15 1   
     3     1    17 1   
     4     2     3 ar  
     5     2     8 ar  
     6     2    29 1   
     7     3     5 ar  
     8     3    30 1   
     9     4    16 1   
    10     4    17 2   
    11     5    13 ar  
    12     5    31 1   
    13     6    55 2   
    14     7    11 1   
    15     7    18 1   
    16     7    19 1   
    17     7    32 1   
    18     8    12 ar  
    19     8    55 1   
    20     9    19 1   
    21     9    21 1   
    22     9    25 1   
    23    10    33 1   
    24    10    34 1   
    25    10    35 1   
    26    10    56 1   
    27    11    38 1   
    28    11    39 1   
    29    11    56 1   
    30    12    13 ar  
    31    12    40 1   
    32    13    14 1   
    33    14    41 1   
    34    14    42 1   
    35    15    16 2   
    36    15    43 1   
    37    16    44 1   
    38    17    45 1   
    39    18    46 1   
    40    18    55 1   
    41    19    20 2   
    42    21    22 1   
    43    21    47 1   
    44    21    48 1   
    45    22    23 1   
    46    22    49 1   
    47    22    50 1   
    48    23    24 2   
    49    23    26 1   
    50    24    25 1   
    51    24    28 1   
    52    25    51 1   
    53    25    52 1   
    54    26    27 1   
    55    27    28 2   
    56    27    53 1   
    57    28    54 1   
    58    36    56 1   
    59    37    56 1   
@<TRIPOS>SUBSTRUCTURE
     1 ZHF         1 TEMP              0 ****  ****    0 ROOT
