@<TRIPOS>MOLECULE
ZHF
   56    59     1     0     0
SMALL
No Charge or Current Charge


@<TRIPOS>ATOM
      1 N1         -28.8490    -9.5650    10.5450 na         1 ZHF      -0.181500
      2 C7         -24.1840   -10.7000     8.7310 ca         1 ZHF      -0.074000
      3 C8         -25.2160   -11.5420     9.1770 ca         1 ZHF      -0.118000
      4 N2         -30.8320   -10.5740    10.6460 nc         1 ZHF      -0.673000
      5 C9         -26.3000   -11.0170     9.8960 ca         1 ZHF      -0.065000
      6 O1         -23.1670    -7.1660     8.7870 o          1 ZHF      -0.608100
      7 C1         -20.9210    -8.1910     7.2950 c3         1 ZHF       0.040700
      8 C6         -24.2250    -9.3100     9.0020 ca         1 ZHF      -0.143600
      9 N3         -19.6710    -7.9590     5.0540 n          1 ZHF      -0.404800
     10 C4         -19.8280    -6.0380     9.4620 c3         1 ZHF      -0.093100
     11 C2         -19.7020    -8.3300     8.2530 c3         1 ZHF      -0.085400
     12 C15        -25.3230    -8.7960     9.7290 ca         1 ZHF      -0.040000
     13 C10        -26.3630    -9.6380    10.1730 ca         1 ZHF      -0.127300
     14 C11        -27.5330    -9.0510    10.9600 c3         1 ZHF       0.126900
     15 C14        -29.4230    -9.4420     9.2920 cd         1 ZHF      -0.220000
     16 C13        -30.6330   -10.0720     9.3900 cc         1 ZHF       0.226900
     17 C12        -29.7450   -10.2630    11.3420 cd         1 ZHF       0.385400
     18 N          -22.0950    -8.9230     7.8280 ns         1 ZHF      -0.479900
     19 C          -20.5790    -8.6970     5.8550 c          1 ZHF       0.589100
     20 O          -21.0550    -9.7500     5.4370 o          1 ZHF      -0.606100
     21 C22        -19.2500    -6.5560     5.3410 c6         1 ZHF       0.107000
     22 C21        -19.9560    -5.5600     4.3900 c6         1 ZHF      -0.025100
     23 C20        -19.8570    -6.0600     2.9700 cc         1 ZHF      -0.195300
     24 C17        -19.5500    -7.3600     2.6530 cd         1 ZHF      -0.129300
     25 C16        -19.2600    -8.4260     3.6970 c6         1 ZHF       0.159300
     26 S          -20.1340    -5.0910     1.5260 ss         1 ZHF       0.188000
     27 C19        -19.8150    -6.4870     0.4990 cc         1 ZHF      -0.231000
     28 C18        -19.5250    -7.5990     1.2510 cd         1 ZHF      -0.116000
     29 H1         -23.3620   -11.1470     8.1780 ha         1 ZHF       0.115000
     30 H2         -25.1750   -12.6080     8.9650 ha         1 ZHF       0.121000
     31 H3         -27.0890   -11.6840    10.2370 ha         1 ZHF       0.120000
     32 H4         -21.1930    -7.1340     7.1900 h1         1 ZHF       0.085700
     33 H5         -19.8530    -5.5690    10.4530 hc         1 ZHF       0.035367
     34 H6         -18.9270    -5.6900     8.9430 hc         1 ZHF       0.035367
     35 H7         -20.7050    -5.6910     8.9040 hc         1 ZHF       0.035367
     36 H8         -20.7230    -7.8990    10.1320 hc         1 ZHF       0.042700
     37 H9         -18.9710    -7.8600    10.2320 hc         1 ZHF       0.042700
     38 H10        -19.5420    -9.3950     8.4600 hc         1 ZHF       0.055200
     39 H11        -18.7890    -7.9880     7.7500 hc         1 ZHF       0.055200
     40 H12        -25.3720    -7.7310     9.9510 ha         1 ZHF       0.137000
     41 H13        -27.5460    -7.9600    10.8490 h1         1 ZHF       0.067200
     42 H14        -27.3890    -9.2700    12.0260 h1         1 ZHF       0.067200
     43 H15        -28.9500    -8.9420     8.4550 h4         1 ZHF       0.160000
     44 H16        -31.3870   -10.1970     8.6230 h4         1 ZHF       0.038100
     45 H17        -29.5420   -10.4990    12.3810 h5         1 ZHF       0.050100
     46 H18        -22.1650    -9.9100     7.6210 hn         1 ZHF       0.324500
     47 H19        -18.1640    -6.4830     5.1870 h1         1 ZHF       0.052700
     48 H20        -19.4390    -6.2640     6.3810 h1         1 ZHF       0.052700
     49 H21        -19.5050    -4.5640     4.4940 hc         1 ZHF       0.066200
     50 H22        -21.0090    -5.4600     4.6830 hc         1 ZHF       0.066200
     51 H23        -19.7760    -9.3570     3.4240 h1         1 ZHF       0.071200
     52 H24        -18.1830    -8.6490     3.7090 h1         1 ZHF       0.071200
     53 H25        -19.8660    -6.3820    -0.5770 h4         1 ZHF       0.151000
     54 H26        -19.2980    -8.5670     0.8140 ha         1 ZHF       0.136000
     55 C5         -23.1320    -8.3650     8.5440 c          1 ZHF       0.612700
     56 C3         -19.8210    -7.5750     9.5990 c3         1 ZHF      -0.073400
@<TRIPOS>BOND
     1     1    14 1   
     2     1    15 1   
     3     1    17 1   
     4     2     3 ar  
     5     2     8 ar  
     6     2    29 1   
     7     3     5 ar  
     8     3    30 1   
     9     4    16 1   
    10     4    17 2   
    11     5    13 ar  
    12     5    31 1   
    13     6    55 2   
    14     7    11 1   
    15     7    18 1   
    16     7    19 1   
    17     7    32 1   
    18     8    12 ar  
    19     8    55 1   
    20     9    19 1   
    21     9    21 1   
    22     9    25 1   
    23    10    33 1   
    24    10    34 1   
    25    10    35 1   
    26    10    56 1   
    27    11    38 1   
    28    11    39 1   
    29    11    56 1   
    30    12    13 ar  
    31    12    40 1   
    32    13    14 1   
    33    14    41 1   
    34    14    42 1   
    35    15    16 2   
    36    15    43 1   
    37    16    44 1   
    38    17    45 1   
    39    18    46 1   
    40    18    55 1   
    41    19    20 2   
    42    21    22 1   
    43    21    47 1   
    44    21    48 1   
    45    22    23 1   
    46    22    49 1   
    47    22    50 1   
    48    23    24 2   
    49    23    26 1   
    50    24    25 1   
    51    24    28 1   
    52    25    51 1   
    53    25    52 1   
    54    26    27 1   
    55    27    28 2   
    56    27    53 1   
    57    28    54 1   
    58    36    56 1   
    59    37    56 1   
@<TRIPOS>SUBSTRUCTURE
     1 ZHF         1 TEMP              0 ****  ****    0 ROOT
