@<TRIPOS>MOLECULE
ZHG
   29    29     1     0     0
SMALL
No Charge or Current Charge


@<TRIPOS>ATOM
      1 C1          49.4690    73.6690   124.4740 c3         1 ZHG      -0.105600
      2 C2          48.7560    73.4820   125.8250 c3         1 ZHG       0.241600
      3 O3          47.5060    74.1800   125.7790 oh         1 ZHG      -0.667500
      4 C4          48.5640    71.9900   126.1570 ca         1 ZHG      -0.250800
      5 C5          47.4420    71.2520   125.7150 ca         1 ZHG       0.245100
      6 C6          47.3050    69.8690   125.9860 ca         1 ZHG      -0.250800
      7 C7          48.3330    69.2330   126.7170 ca         1 ZHG       0.238100
      8 C8          49.4460    69.9520   127.1560 ca         1 ZHG      -0.358000
      9 C9          49.5640    71.3130   126.8780 ca         1 ZHG       0.238100
     10 O10         50.6790    71.9610   127.3100 oh         1 ZHG      -0.523600
     11 O11         48.2880    67.9080   127.0200 oh         1 ZHG      -0.523600
     12 C12         46.0670    69.1010   125.4830 c3         1 ZHG       0.241600
     13 O13         45.3480    68.5310   126.5820 oh         1 ZHG      -0.667500
     14 C14         46.4010    68.0020   124.4510 c3         1 ZHG      -0.105600
     15 O15         46.4780    71.9090   125.0200 oh         1 ZHG      -0.557100
     16 H1          50.4470    73.1750   124.4880 hc         1 ZHG       0.043533
     17 H2          48.8790    73.2360   123.6570 hc         1 ZHG       0.043533
     18 H3          49.6280    74.7320   124.2610 hc         1 ZHG       0.043533
     19 H4          49.3830    73.9440   126.6010 h1         1 ZHG       0.050200
     20 H5          47.7180    75.1400   125.8150 ho         1 ZHG       0.446500
     21 H6          50.2310    69.4460   127.7130 ha         1 ZHG       0.115000
     22 H7          51.2380    71.3100   127.7810 ho         1 ZHG       0.465500
     23 H8          49.0820    67.6980   127.5500 ho         1 ZHG       0.465500
     24 H9          45.3930    69.7940   124.9640 h1         1 ZHG       0.050200
     25 H10         44.5860    68.0470   126.1970 ho         1 ZHG       0.446500
     26 H11         46.9810    68.4260   123.6230 hc         1 ZHG       0.043533
     27 H12         46.9820    67.1860   124.8930 hc         1 ZHG       0.043533
     28 H13         45.4820    67.5750   124.0340 hc         1 ZHG       0.043533
     29 H14         46.6980    72.8680   125.1650 ho         1 ZHG       0.505000
@<TRIPOS>BOND
     1     1     2 1   
     2     1    16 1   
     3     1    17 1   
     4     1    18 1   
     5     2     3 1   
     6     2     4 1   
     7     2    19 1   
     8     3    20 1   
     9     4     5 ar  
    10     4     9 ar  
    11     5     6 ar  
    12     5    15 1   
    13     6     7 ar  
    14     6    12 1   
    15     7     8 ar  
    16     7    11 1   
    17     8     9 ar  
    18     8    21 1   
    19     9    10 1   
    20    10    22 1   
    21    11    23 1   
    22    12    13 1   
    23    12    14 1   
    24    12    24 1   
    25    13    25 1   
    26    14    26 1   
    27    14    27 1   
    28    14    28 1   
    29    15    29 1   
@<TRIPOS>SUBSTRUCTURE
     1 ZHG         1 TEMP              0 ****  ****    0 ROOT
