@<TRIPOS>MOLECULE
ZHG
   29    29     1     0     0
SMALL
abcg2


@<TRIPOS>ATOM
      1 C1          49.5080    73.5850   124.3870 c3         1 ZHG      -0.105600
      2 C2          48.8120    73.4530   125.7310 c3         1 ZHG       0.241600
      3 O3          47.5680    74.1540   125.6380 oh         1 ZHG      -0.667500
      4 C4          48.6110    72.0030   126.1230 ca         1 ZHG      -0.250800
      5 C5          47.4980    71.2660   125.6880 ca         1 ZHG       0.245100
      6 C6          47.3210    69.9080   125.9900 ca         1 ZHG      -0.250800
      7 C7          48.3210    69.2880   126.7460 ca         1 ZHG       0.238100
      8 C8          49.4380    69.9900   127.1880 ca         1 ZHG      -0.358000
      9 C9          49.5750    71.3350   126.8730 ca         1 ZHG       0.238100
     10 O10         50.6570    72.0390   127.2620 oh         1 ZHG      -0.523600
     11 O11         48.1850    67.9800   127.0360 oh         1 ZHG      -0.523600
     12 C12         46.0950    69.1680   125.5080 c3         1 ZHG       0.241600
     13 O13         45.4290    68.6160   126.6320 oh         1 ZHG      -0.667500
     14 C14         46.4210    68.1130   124.4520 c3         1 ZHG      -0.105600
     15 O15         46.5530    71.8620   124.9370 oh         1 ZHG      -0.557100
     16 H1          50.4810    73.0980   124.4280 hc         1 ZHG       0.043533
     17 H2          48.9320    73.1140   123.5890 hc         1 ZHG       0.043533
     18 H3          49.6670    74.6330   124.1280 hc         1 ZHG       0.043533
     19 H4          49.4280    73.9470   126.4880 h1         1 ZHG       0.050200
     20 H5          47.2250    74.2890   126.5290 ho         1 ZHG       0.446500
     21 H6          50.2040    69.4860   127.7700 ha         1 ZHG       0.115000
     22 H7          51.2480    71.4860   127.7860 ho         1 ZHG       0.465500
     23 H8          48.9460    67.6700   127.5390 ho         1 ZHG       0.465500
     24 H9          45.4370    69.8960   125.0250 h1         1 ZHG       0.050200
     25 H10         44.6410    68.1670   126.3090 ho         1 ZHG       0.446500
     26 H11         46.9080    68.5780   123.5940 hc         1 ZHG       0.043533
     27 H12         47.0750    67.3310   124.8340 hc         1 ZHG       0.043533
     28 H13         45.5050    67.6410   124.0870 hc         1 ZHG       0.043533
     29 H14         46.6870    72.8320   124.9980 ho         1 ZHG       0.505000
@<TRIPOS>BOND
     1     1     2 1   
     2     1    16 1   
     3     1    17 1   
     4     1    18 1   
     5     2     3 1   
     6     2     4 1   
     7     2    19 1   
     8     3    20 1   
     9     4     5 ar  
    10     4     9 ar  
    11     5     6 ar  
    12     5    15 1   
    13     6     7 ar  
    14     6    12 1   
    15     7     8 ar  
    16     7    11 1   
    17     8     9 ar  
    18     8    21 1   
    19     9    10 1   
    20    10    22 1   
    21    11    23 1   
    22    12    13 1   
    23    12    14 1   
    24    12    24 1   
    25    13    25 1   
    26    14    26 1   
    27    14    27 1   
    28    14    28 1   
    29    15    29 1   
@<TRIPOS>SUBSTRUCTURE
     1 ZHG         1 TEMP              0 ****  ****    0 ROOT
