@<TRIPOS>MOLECULE
ZHH
   24    24     1     0     0
SMALL
abcg2


@<TRIPOS>ATOM
      1 N2           1.2750    -2.0370    -3.7170 n8         1 ZHH      -0.997200
      2 CA           1.2340    -2.1060    -2.2650 c3         1 ZHH       0.148800
      3 CB           1.9330    -0.8970    -1.6460 c3         1 ZHH      -0.027100
      4 CG           1.9230    -0.9500    -0.1440 ca         1 ZHH      -0.118300
      5 CD2          0.8340    -0.4760     0.5890 ca         1 ZHH      -0.071000
      6 CE2          0.7980    -0.5630     1.9690 ca         1 ZHH      -0.170500
      7 CZ           1.8640    -1.1350     2.6660 ca         1 ZHH       0.138100
      8 O1           1.7480    -1.1800     4.0090 os         1 ZHH      -0.342100
      9 CF1          2.7980    -1.7600     4.7540 c3         1 ZHH       0.148900
     10 CE1          2.9600    -1.6110     1.9530 ca         1 ZHH      -0.170500
     11 CD1          2.9750    -1.5140     0.5650 ca         1 ZHH      -0.071000
     12 HN21         2.2280    -2.1740    -4.0310 hn         1 ZHH       0.391000
     13 HN22         0.7500    -2.8100    -4.1060 hn         1 ZHH       0.391000
     14 HA1          1.6800    -3.0220    -1.8510 h1         1 ZHH       0.030200
     15 HA2          0.1870    -2.1070    -1.9500 h1         1 ZHH       0.030200
     16 HB1          2.9660    -0.8580    -2.0040 hc         1 ZHH       0.052200
     17 HB2          1.4420     0.0130    -2.0000 hc         1 ZHH       0.052200
     18 HD2         -0.0050    -0.0260     0.0700 ha         1 ZHH       0.111500
     19 HE2         -0.0560    -0.1840     2.5170 ha         1 ZHH       0.120500
     20 HF11         3.7390    -1.2170     4.6300 h1         1 ZHH       0.039700
     21 HF12         2.9610    -2.8080     4.4860 h1         1 ZHH       0.039700
     22 HF13         2.5030    -1.7100     5.8000 h1         1 ZHH       0.039700
     23 HE1          3.8100    -2.0560     2.4520 ha         1 ZHH       0.120500
     24 HD1          3.8390    -1.8910     0.0300 ha         1 ZHH       0.111500
@<TRIPOS>BOND
     1     1     2 1   
     2     1    12 1   
     3     1    13 1   
     4     2     3 1   
     5     2    14 1   
     6     2    15 1   
     7     3     4 1   
     8     3    16 1   
     9     3    17 1   
    10     4     5 ar  
    11     4    11 ar  
    12     5     6 ar  
    13     5    18 1   
    14     6     7 ar  
    15     6    19 1   
    16     7     8 1   
    17     7    10 ar  
    18     8     9 1   
    19     9    20 1   
    20     9    21 1   
    21     9    22 1   
    22    10    11 ar  
    23    10    23 1   
    24    11    24 1   
@<TRIPOS>SUBSTRUCTURE
     1 ZHH         1 TEMP              0 ****  ****    0 ROOT
