@<TRIPOS>MOLECULE
ZHH
   24    24     1     0     0
SMALL
No Charge or Current Charge


@<TRIPOS>ATOM
      1 N2           1.2460    -2.0400    -3.7890 n8         1 ZHH      -0.997200
      2 CA           1.2330    -2.1150    -2.3130 c3         1 ZHH       0.148800
      3 CB           1.9070    -0.8870    -1.6640 c3         1 ZHH      -0.027100
      4 CG           1.8910    -0.9640    -0.1420 ca         1 ZHH      -0.118300
      5 CD2          0.8040    -0.4420     0.5840 ca         1 ZHH      -0.071000
      6 CE2          0.7900    -0.5180     1.9880 ca         1 ZHH      -0.170500
      7 CZ           1.8550    -1.1160     2.6800 ca         1 ZHH       0.138100
      8 O1           1.7850    -1.1620     4.0570 os         1 ZHH      -0.342100
      9 CF1          2.8240    -1.7520     4.8590 c3         1 ZHH       0.148900
     10 CE1          2.9460    -1.6420     1.9540 ca         1 ZHH      -0.170500
     11 CD1          2.9600    -1.5660     0.5500 ca         1 ZHH      -0.071000
     12 HN21         2.2190    -2.0710    -4.1170 hn         1 ZHH       0.391000
     13 HN22         0.8360    -2.9020    -4.1710 hn         1 ZHH       0.391000
     14 HA1          1.7580    -3.0290    -2.0020 h1         1 ZHH       0.030200
     15 HA2          0.1900    -2.1820    -1.9740 h1         1 ZHH       0.030200
     16 HB1          2.9390    -0.8070    -2.0260 hc         1 ZHH       0.052200
     17 HB2          1.3930     0.0230    -1.9980 hc         1 ZHH       0.052200
     18 HD2         -0.0300     0.0220     0.0620 ha         1 ZHH       0.111500
     19 HE2         -0.0520    -0.1130     2.5430 ha         1 ZHH       0.120500
     20 HF11         3.7790    -1.2330     4.7040 h1         1 ZHH       0.039700
     21 HF12         2.9540    -2.8130     4.6090 h1         1 ZHH       0.039700
     22 HF13         2.5680    -1.6820     5.9240 h1         1 ZHH       0.039700
     23 HE1          3.7860    -2.1120     2.4580 ha         1 ZHH       0.120500
     24 HD1          3.8040    -1.9760    -0.0010 ha         1 ZHH       0.111500
@<TRIPOS>BOND
     1     1     2 1   
     2     1    12 1   
     3     1    13 1   
     4     2     3 1   
     5     2    14 1   
     6     2    15 1   
     7     3     4 1   
     8     3    16 1   
     9     3    17 1   
    10     4     5 ar  
    11     4    11 ar  
    12     5     6 ar  
    13     5    18 1   
    14     6     7 ar  
    15     6    19 1   
    16     7     8 1   
    17     7    10 ar  
    18     8     9 1   
    19     9    20 1   
    20     9    21 1   
    21     9    22 1   
    22    10    11 ar  
    23    10    23 1   
    24    11    24 1   
@<TRIPOS>SUBSTRUCTURE
     1 ZHH         1 TEMP              0 ****  ****    0 ROOT
