@<TRIPOS>MOLECULE
ZHK
   48    50     1     0     0
SMALL
abcg2


@<TRIPOS>ATOM
      1 C1          -0.0850    -1.0520     2.1180 c3         1 ZHK      -0.085100
      2 C2          -0.3620    -1.4000     0.6590 c3         1 ZHK      -0.032700
      3 C3          -1.8560    -1.5130     0.4000 c          1 ZHK       0.619100
      4 O4          -2.4080    -2.5920     0.3310 o          1 ZHK      -0.550100
      5 N5          -2.4700    -0.3100     0.3000 ns         1 ZHK      -0.138000
      6 C6          -3.8260    -0.0220     0.1690 ca         1 ZHK       0.031000
      7 C7          -4.1810     1.3310     0.2040 ca         1 ZHK      -0.172000
      8 C8          -5.4980     1.7200     0.0870 ca         1 ZHK       0.015000
      9 C9          -6.4830     0.7530    -0.0750 ca         1 ZHK      -0.350500
     10 C10         -6.1460    -0.5910    -0.1130 ca         1 ZHK       0.015000
     11 C11         -4.8230    -0.9850     0.0080 ca         1 ZHK      -0.172000
     12 S12         -8.1720     1.2480    -0.2540 sy         1 ZHK       1.147600
     13 O13         -9.0080     0.0910     0.0190 o          1 ZHK      -0.529000
     14 O14         -8.3580     2.4790     0.4950 o          1 ZHK      -0.529000
     15 N15         -8.4170     1.6320    -1.8340 n8         1 ZHK      -0.996100
     16 S16          0.3060    -3.0370     0.2110 ss         1 ZHK      -0.141200
     17 C17          1.9900    -2.6490     0.0250 cc         1 ZHK       0.522800
     18 N18          2.8000    -3.7020    -0.1950 ns         1 ZHK      -0.392400
     19 C20          4.1600    -3.5800    -0.4390 c          1 ZHK       0.577200
     20 O21          4.8510    -4.5500    -0.6700 o          1 ZHK      -0.503000
     21 C22          4.6200    -2.2090    -0.3860 cc         1 ZHK      -0.169900
     22 C23          3.7360    -1.1930    -0.0900 cd         1 ZHK       0.312400
     23 N24          2.4210    -1.4250     0.0860 nd         1 ZHK      -0.692300
     24 C25          4.1410     0.2170     0.0350 ca         1 ZHK      -0.064800
     25 C26          5.3160     0.5890     0.6820 ca         1 ZHK      -0.064000
     26 C27          5.6550     1.9250     0.7980 ca         1 ZHK      -0.099000
     27 C28          4.8290     2.9010     0.2630 ca         1 ZHK       0.135000
     28 C29          3.6470     2.5350    -0.3750 ca         1 ZHK       0.103000
     29 C30          3.2980     1.2000    -0.4750 ca         1 ZHK      -0.055000
     30 CL1          2.6050     3.7310    -1.0410 cl         1 ZHK      -0.168000
     31 CL2          5.2710     4.5530     0.4040 cl         1 ZHK      -0.157000
     32 C33          5.9830    -2.0030    -0.7080 cg         1 ZHK       0.305700
     33 N34          7.0910    -1.8660    -0.9940 n1         1 ZHK      -0.437000
     34 H1          -0.5310    -1.7830     2.7900 hc         1 ZHK       0.059033
     35 H2           0.9870    -1.0130     2.3000 hc         1 ZHK       0.059033
     36 H3          -0.4930    -0.0690     2.3550 hc         1 ZHK       0.059033
     37 H4           0.0910    -0.6580    -0.0010 h1         1 ZHK       0.110700
     38 H5          -1.8690     0.5000     0.3470 hn         1 ZHK       0.161000
     39 H6          -3.4160     2.0870     0.3330 ha         1 ZHK       0.135500
     40 H7          -5.7440     2.7730     0.1290 ha         1 ZHK       0.139000
     41 H8          -6.9050    -1.3510    -0.2310 ha         1 ZHK       0.139000
     42 H9          -4.5900    -2.0360    -0.0220 ha         1 ZHK       0.135500
     43 H10         -7.8790     2.4310    -2.1510 hn         1 ZHK       0.475000
     44 H11         -8.3110     0.8470    -2.4670 hn         1 ZHK       0.475000
     45 H19          2.4220    -4.6440    -0.2050 hn         1 ZHK       0.349500
     46 H12          5.9620    -0.1510     1.1360 ha         1 ZHK       0.136000
     47 H13          6.5610     2.2110     1.3130 ha         1 ZHK       0.141000
     48 H14          2.3750     0.9250    -0.9650 ha         1 ZHK       0.139000
@<TRIPOS>BOND
     1     1     2 1   
     2     1    34 1   
     3     1    35 1   
     4     1    36 1   
     5     2     3 1   
     6     2    16 1   
     7     2    37 1   
     8     3     4 2   
     9     3     5 1   
    10     5     6 1   
    11     5    38 1   
    12     6     7 ar  
    13     6    11 ar  
    14     7     8 ar  
    15     7    39 1   
    16     8     9 ar  
    17     8    40 1   
    18     9    10 ar  
    19     9    12 1   
    20    10    11 ar  
    21    10    41 1   
    22    11    42 1   
    23    12    13 2   
    24    12    14 2   
    25    12    15 1   
    26    15    43 1   
    27    15    44 1   
    28    16    17 1   
    29    17    18 1   
    30    17    23 2   
    31    18    19 1   
    32    18    45 1   
    33    19    20 2   
    34    19    21 1   
    35    21    22 2   
    36    21    32 1   
    37    22    23 1   
    38    22    24 1   
    39    24    25 ar  
    40    24    29 ar  
    41    25    26 ar  
    42    25    46 1   
    43    26    27 ar  
    44    26    47 1   
    45    27    28 ar  
    46    27    31 1   
    47    28    29 ar  
    48    28    30 1   
    49    29    48 1   
    50    32    33 3   
@<TRIPOS>SUBSTRUCTURE
     1 ZHK         1 TEMP              0 ****  ****    0 ROOT
