@<TRIPOS>MOLECULE
ZHK
   48    50     1     0     0
SMALL
No Charge or Current Charge


@<TRIPOS>ATOM
      1 C1           0.2060    -1.5990     2.5300 c3         1 ZHK      -0.085100
      2 C2          -0.3580    -1.5680     1.0870 c3         1 ZHK      -0.032700
      3 C3          -1.9000    -1.5290     1.0760 c          1 ZHK       0.619100
      4 O4          -2.5710    -2.4180     1.5890 o          1 ZHK      -0.550100
      5 N5          -2.4360    -0.4120     0.4450 ns         1 ZHK      -0.138000
      6 C6          -3.7750     0.0060     0.2110 ca         1 ZHK       0.031000
      7 C7          -3.9640     1.2440    -0.4310 ca         1 ZHK      -0.172000
      8 C8          -5.2550     1.7300    -0.7000 ca         1 ZHK       0.015000
      9 C9          -6.3810     0.9720    -0.3260 ca         1 ZHK      -0.350500
     10 C10         -6.2050    -0.2680     0.3170 ca         1 ZHK       0.015000
     11 C11         -4.9100    -0.7470     0.5820 ca         1 ZHK      -0.172000
     12 S12         -8.0320     1.5780    -0.6620 sy         1 ZHK       1.147600
     13 O13         -8.9960     0.9890     0.2670 o          1 ZHK      -0.529000
     14 O14         -7.9880     3.0050    -0.9680 o          1 ZHK      -0.529000
     15 N15         -8.3350     0.8730    -2.1030 n8         1 ZHK      -0.996100
     16 S16          0.2460    -3.0390     0.1130 ss         1 ZHK      -0.141200
     17 C17          1.9440    -2.7000    -0.2230 cc         1 ZHK       0.522800
     18 N18          2.7670    -3.6820    -0.6520 ns         1 ZHK      -0.392400
     19 C20          4.0640    -3.5070    -0.9530 c          1 ZHK       0.577200
     20 O21          4.7460    -4.4410    -1.3480 o          1 ZHK      -0.503000
     21 C22          4.5180    -2.1260    -0.7590 cc         1 ZHK      -0.169900
     22 C23          3.6610    -1.1150    -0.3180 cd         1 ZHK       0.312400
     23 N24          2.3220    -1.4420    -0.0510 nd         1 ZHK      -0.692300
     24 C25          4.0340     0.2990     0.0040 ca         1 ZHK      -0.064800
     25 C26          5.3340     0.6870     0.4190 ca         1 ZHK      -0.064000
     26 C27          5.6220     2.0220     0.7550 ca         1 ZHK      -0.099000
     27 C28          4.6170     2.9990     0.7100 ca         1 ZHK       0.135000
     28 C29          3.3110     2.6310     0.3430 ca         1 ZHK       0.103000
     29 C30          3.0250     1.2970     0.0080 ca         1 ZHK      -0.055000
     30 Cl1          2.0090     3.8220     0.2970 cl         1 ZHK      -0.168000
     31 Cl2          5.0130     4.6630     1.1430 cl         1 ZHK      -0.157000
     32 C33          5.8610    -1.9170    -1.1680 cg         1 ZHK       0.305700
     33 N34          6.9560    -1.7310    -1.5280 n1         1 ZHK      -0.437000
     34 H1          -0.1090    -2.5100     3.0530 hc         1 ZHK       0.059033
     35 H2           1.3020    -1.5710     2.5270 hc         1 ZHK       0.059033
     36 H3          -0.1500    -0.7340     3.1020 hc         1 ZHK       0.059033
     37 H4          -0.0100    -0.6550     0.5890 h1         1 ZHK       0.110700
     38 H5          -1.7440     0.2280     0.0800 hn         1 ZHK       0.161000
     39 H6          -3.1040     1.8410    -0.7260 ha         1 ZHK       0.135500
     40 H7          -5.3690     2.6940    -1.1960 ha         1 ZHK       0.139000
     41 H8          -7.0660    -0.8680     0.6110 ha         1 ZHK       0.139000
     42 H9          -4.8160    -1.7090     1.0750 ha         1 ZHK       0.135500
     43 H10         -8.5620     1.6860    -2.6690 hn         1 ZHK       0.475000
     44 H11         -7.3990     0.6160    -2.4080 hn         1 ZHK       0.475000
     45 H19          2.4010    -4.6150    -0.7690 hn         1 ZHK       0.349500
     46 H12          6.1330    -0.0360     0.5380 ha         1 ZHK       0.136000
     47 H13          6.6260     2.2970     1.0690 ha         1 ZHK       0.141000
     48 H14          2.0050     1.0520    -0.2760 ha         1 ZHK       0.139000
@<TRIPOS>BOND
     1     1     2 1   
     2     1    34 1   
     3     1    35 1   
     4     1    36 1   
     5     2     3 1   
     6     2    16 1   
     7     2    37 1   
     8     3     4 2   
     9     3     5 1   
    10     5     6 1   
    11     5    38 1   
    12     6     7 ar  
    13     6    11 ar  
    14     7     8 ar  
    15     7    39 1   
    16     8     9 ar  
    17     8    40 1   
    18     9    10 ar  
    19     9    12 1   
    20    10    11 ar  
    21    10    41 1   
    22    11    42 1   
    23    12    13 2   
    24    12    14 2   
    25    12    15 1   
    26    15    43 1   
    27    15    44 1   
    28    16    17 1   
    29    17    18 1   
    30    17    23 2   
    31    18    19 1   
    32    18    45 1   
    33    19    20 2   
    34    19    21 1   
    35    21    22 2   
    36    21    32 1   
    37    22    23 1   
    38    22    24 1   
    39    24    25 ar  
    40    24    29 ar  
    41    25    26 ar  
    42    25    46 1   
    43    26    27 ar  
    44    26    47 1   
    45    27    28 ar  
    46    27    31 1   
    47    28    29 ar  
    48    28    30 1   
    49    29    48 1   
    50    32    33 3   
@<TRIPOS>SUBSTRUCTURE
     1 ZHK         1 TEMP              0 ****  ****    0 ROOT
