@<TRIPOS>MOLECULE
ZHL
   48    51     1     0     0
SMALL
No Charge or Current Charge


@<TRIPOS>ATOM
      1 O3          63.4630   -33.5290   -18.3520 oh         1 ZHL      -0.709000
      2 O1          63.6800   -29.0130   -13.6050 o          1 ZHL      -0.588100
      3 O2          63.5080   -30.7390   -17.6640 oh         1 ZHL      -0.643000
      4 C5          63.5830   -33.0980   -16.9820 c6         1 ZHL       0.148300
      5 C4          62.8940   -31.7120   -16.8000 c6         1 ZHL       0.165300
      6 N1          62.2640   -29.9420   -15.1350 ns         1 ZHL      -0.514900
      7 C6          62.9560   -34.1220   -15.9880 c6         1 ZHL       0.146300
      8 C3          62.9560   -31.2480   -15.3170 c6         1 ZHL       0.037700
      9 C2          62.6450   -28.9560   -14.2520 c          1 ZHL       0.602100
     10 C7          63.6610   -35.5180   -16.0390 c3         1 ZHL       0.168600
     11 C8          62.3440   -32.3730   -14.4250 c6         1 ZHL       0.384300
     12 C9          61.4440   -32.5670   -12.1260 c5         1 ZHL       0.144300
     13 C10         61.7190   -34.0880   -11.8490 c5         1 ZHL      -0.102700
     14 C1          61.6840   -27.7800   -14.1570 c3         1 ZHL      -0.177100
     15 O4          63.1210   -36.4650   -15.0940 oh         1 ZHL      -0.718000
     16 O5          63.0590   -33.6040   -14.6370 os         1 ZHL      -0.465000
     17 O6          62.4310   -32.0130   -13.0350 os         1 ZHL      -0.429000
     18 C11         60.5590   -34.5950   -10.9330 c5         1 ZHL      -0.067400
     19 C12         60.7710   -33.7710    -9.6130 c5         1 ZHL      -0.188700
     20 C13         59.7990   -32.5760    -9.5870 c          1 ZHL       0.651100
     21 O7          58.8540   -32.4390    -8.8260 o          1 ZHL      -0.485000
     22 O8          60.4310   -31.5030   -10.1590 os         1 ZHL      -0.426100
     23 C14         61.7030   -31.9100   -10.7190 c5         1 ZHL       0.161300
     24 C15         62.1580   -33.1070    -9.8380 c5         1 ZHL      -0.097700
     25 C16         62.8830   -34.0380   -10.8370 c5         1 ZHL      -0.065400
     26 H1          63.6170   -32.7140   -18.8890 ho         1 ZHL       0.509000
     27 H2          63.2400   -29.8560   -17.3240 ho         1 ZHL       0.452000
     28 H3          64.6470   -32.9850   -16.7220 h1         1 ZHL       0.063700
     29 H4          61.8330   -31.8210   -17.0720 h1         1 ZHL       0.040700
     30 H5          61.3750   -29.7980   -15.6020 hn         1 ZHL       0.307500
     31 H6          61.8930   -34.2660   -16.2330 h1         1 ZHL       0.061700
     32 H7          64.0120   -31.1370   -15.0290 h1         1 ZHL       0.122700
     33 H8          63.5650   -35.9150   -17.0590 h1         1 ZHL       0.034200
     34 H9          64.7320   -35.3660   -15.8500 h1         1 ZHL       0.034200
     35 H10         61.2870   -32.5080   -14.6980 h2         1 ZHL       0.025700
     36 H11         60.4350   -32.3690   -12.5140 h1         1 ZHL       0.058700
     37 H12         61.8860   -34.7130   -12.7310 hc         1 ZHL       0.095700
     38 H13         62.0270   -27.0100   -13.4580 hc         1 ZHL       0.064033
     39 H14         61.5190   -27.3710   -15.1610 hc         1 ZHL       0.064033
     40 H15         60.6890   -28.1540   -13.8910 hc         1 ZHL       0.064033
     41 H16         63.6740   -37.2790   -15.1570 ho         1 ZHL       0.506000
     42 H17         59.5680   -34.4500   -11.3820 hc         1 ZHL       0.059700
     43 H18         60.6600   -35.6710   -10.7420 hc         1 ZHL       0.059700
     44 H19         60.6740   -34.3770    -8.7060 hc         1 ZHL       0.097700
     45 H20         62.4110   -31.0700   -10.7580 h1         1 ZHL       0.116700
     46 H21         62.7090   -32.8300    -8.9310 hc         1 ZHL       0.090700
     47 H22         63.1330   -35.0180   -10.4120 hc         1 ZHL       0.069700
     48 H23         63.8010   -33.6010   -11.2500 hc         1 ZHL       0.069700
@<TRIPOS>BOND
     1     1     4 1   
     2     1    26 1   
     3     2     9 2   
     4     3     5 1   
     5     3    27 1   
     6     4     5 1   
     7     4     7 1   
     8     4    28 1   
     9     5     8 1   
    10     5    29 1   
    11     6     8 1   
    12     6     9 1   
    13     6    30 1   
    14     7    10 1   
    15     7    16 1   
    16     7    31 1   
    17     8    11 1   
    18     8    32 1   
    19     9    14 1   
    20    10    15 1   
    21    10    33 1   
    22    10    34 1   
    23    11    16 1   
    24    11    17 1   
    25    11    35 1   
    26    12    13 1   
    27    12    17 1   
    28    12    23 1   
    29    12    36 1   
    30    13    18 1   
    31    13    25 1   
    32    13    37 1   
    33    14    38 1   
    34    14    39 1   
    35    14    40 1   
    36    15    41 1   
    37    18    19 1   
    38    18    42 1   
    39    18    43 1   
    40    19    20 1   
    41    19    24 1   
    42    19    44 1   
    43    20    21 2   
    44    20    22 1   
    45    22    23 1   
    46    23    24 1   
    47    23    45 1   
    48    24    25 1   
    49    24    46 1   
    50    25    47 1   
    51    25    48 1   
@<TRIPOS>SUBSTRUCTURE
     1 ZHL         1 TEMP              0 ****  ****    0 ROOT
