@<TRIPOS>MOLECULE
ZHL
   48    51     1     0     0
SMALL
abcg2


@<TRIPOS>ATOM
      1 O3          63.3770   -33.3430   -18.2940 oh         1 ZHL      -0.709000
      2 O1          63.6370   -28.8500   -13.9060 o          1 ZHL      -0.588100
      3 O2          63.5140   -30.6270   -17.4870 oh         1 ZHL      -0.643000
      4 C5          63.6230   -32.9490   -16.9460 c6         1 ZHL       0.148300
      5 C4          62.8910   -31.6390   -16.7050 c6         1 ZHL       0.165300
      6 N1          62.0780   -30.0820   -15.0070 ns         1 ZHL      -0.514900
      7 C6          63.1180   -34.0240   -15.9700 c6         1 ZHL       0.146300
      8 C3          62.8950   -31.2570   -15.2220 c6         1 ZHL       0.037700
      9 C2          62.4910   -28.9830   -14.3340 c          1 ZHL       0.602100
     10 C7          63.9140   -35.3040   -16.0720 c3         1 ZHL       0.168600
     11 C8          62.4200   -32.4270   -14.3600 c6         1 ZHL       0.384300
     12 C9          61.5360   -32.5410   -12.1430 c5         1 ZHL       0.144300
     13 C10         61.5030   -34.0650   -11.9390 c5         1 ZHL      -0.102700
     14 C1          61.4420   -27.9150   -14.1330 c3         1 ZHL      -0.177100
     15 O4          63.2520   -36.3180   -15.3170 oh         1 ZHL      -0.718000
     16 O5          63.2290   -33.5600   -14.6250 os         1 ZHL      -0.465000
     17 O6          62.5710   -32.0910   -13.0200 os         1 ZHL      -0.429000
     18 C11         60.3260   -34.3750   -10.9960 c5         1 ZHL      -0.067400
     19 C12         60.7720   -33.7280    -9.6360 c5         1 ZHL      -0.188700
     20 C13         60.0600   -32.4180    -9.4180 c          1 ZHL       0.651100
     21 O7          59.0520   -32.1830    -8.7990 o          1 ZHL      -0.485000
     22 O8          60.7300   -31.4410   -10.0760 os         1 ZHL      -0.426100
     23 C14         61.8900   -32.0190   -10.7300 c5         1 ZHL       0.161300
     24 C15         62.2240   -33.3000    -9.9400 c5         1 ZHL      -0.097700
     25 C16         62.7100   -34.2760   -11.0110 c5         1 ZHL      -0.065400
     26 H1          64.1490   -33.8120   -18.6310 ho         1 ZHL       0.509000
     27 H2          63.0190   -29.8070   -17.3620 ho         1 ZHL       0.452000
     28 H3          64.6930   -32.7880   -16.7830 h1         1 ZHL       0.063700
     29 H4          61.8500   -31.7750   -17.0310 h1         1 ZHL       0.040700
     30 H5          61.1100   -30.1280   -15.2900 hn         1 ZHL       0.307500
     31 H6          62.0650   -34.2350   -16.2000 h1         1 ZHL       0.061700
     32 H7          63.9110   -31.0100   -14.9150 h1         1 ZHL       0.122700
     33 H8          63.9860   -35.5960   -17.1240 h1         1 ZHL       0.034200
     34 H9          64.9240   -35.1260   -15.6880 h1         1 ZHL       0.034200
     35 H10         61.3700   -32.6660   -14.5840 h2         1 ZHL       0.025700
     36 H11         60.5780   -32.1400   -12.4840 h1         1 ZHL       0.058700
     37 H12         61.4870   -34.6350   -12.8640 hc         1 ZHL       0.095700
     38 H13         61.8580   -26.9510   -14.4250 hc         1 ZHL       0.064033
     39 H14         60.5290   -28.1050   -14.6960 hc         1 ZHL       0.064033
     40 H15         61.1990   -27.8660   -13.0690 hc         1 ZHL       0.064033
     41 H16         63.7830   -37.1220   -15.3610 ho         1 ZHL       0.506000
     42 H17         59.3730   -33.9850   -11.3560 hc         1 ZHL       0.059700
     43 H18         60.2210   -35.4510   -10.8670 hc         1 ZHL       0.059700
     44 H19         60.6350   -34.3930    -8.7880 hc         1 ZHL       0.097700
     45 H20         62.6620   -31.2560   -10.7620 h1         1 ZHL       0.116700
     46 H21         62.8520   -33.1430    -9.0670 hc         1 ZHL       0.090700
     47 H22         62.7940   -35.2990   -10.6450 hc         1 ZHL       0.069700
     48 H23         63.6560   -33.9770   -11.4620 hc         1 ZHL       0.069700
@<TRIPOS>BOND
     1     1     4 1   
     2     1    26 1   
     3     2     9 2   
     4     3     5 1   
     5     3    27 1   
     6     4     5 1   
     7     4     7 1   
     8     4    28 1   
     9     5     8 1   
    10     5    29 1   
    11     6     8 1   
    12     6     9 1   
    13     6    30 1   
    14     7    10 1   
    15     7    16 1   
    16     7    31 1   
    17     8    11 1   
    18     8    32 1   
    19     9    14 1   
    20    10    15 1   
    21    10    33 1   
    22    10    34 1   
    23    11    16 1   
    24    11    17 1   
    25    11    35 1   
    26    12    13 1   
    27    12    17 1   
    28    12    23 1   
    29    12    36 1   
    30    13    18 1   
    31    13    25 1   
    32    13    37 1   
    33    14    38 1   
    34    14    39 1   
    35    14    40 1   
    36    15    41 1   
    37    18    19 1   
    38    18    42 1   
    39    18    43 1   
    40    19    20 1   
    41    19    24 1   
    42    19    44 1   
    43    20    21 2   
    44    20    22 1   
    45    22    23 1   
    46    23    24 1   
    47    23    45 1   
    48    24    25 1   
    49    24    46 1   
    50    25    47 1   
    51    25    48 1   
@<TRIPOS>SUBSTRUCTURE
     1 ZHL         1 TEMP              0 ****  ****    0 ROOT
