@<TRIPOS>MOLECULE
ZHM
   46    49     1     0     0
SMALL
No Charge or Current Charge


@<TRIPOS>ATOM
      1 C10         11.1830    -5.0960     1.3090 cc         1 ZHM       0.230300
      2 C11         10.6310    -4.1410     2.3340 c3         1 ZHM      -0.112400
      3 C15         11.5250    -7.6690    -1.2140 c6         1 ZHM       0.097300
      4 C02          8.1500    -6.1540    -4.6380 ca         1 ZHM      -0.003900
      5 C03          7.6230    -6.3700    -3.3540 ca         1 ZHM      -0.079000
      6 C04          7.3310    -7.6800    -2.9250 ca         1 ZHM       0.139100
      7 C06          7.3280    -7.3710    -0.5250 ca         1 ZHM       0.584300
      8 C08          9.1450    -6.5130     0.6490 ca         1 ZHM       0.465500
      9 C09         10.5600    -6.0890     0.5990 cd         1 ZHM      -0.261500
     10 C16         11.3210    -7.1510    -2.6600 c6         1 ZHM      -0.086400
     11 C17         11.2650    -8.3310    -3.6550 c6         1 ZHM       0.158300
     12 C19         12.6910    -9.7150    -2.1860 c6         1 ZHM       0.158300
     13 C20         12.7890    -8.5720    -1.1500 c6         1 ZHM      -0.086400
     14 C21          8.3480    -6.3380     1.8000 ca         1 ZHM      -0.169000
     15 C22          6.9970    -6.7140     1.7770 ca         1 ZHM      -0.049000
     16 C23          6.4840    -7.2430     0.5860 ca         1 ZHM      -0.165000
     17 C24          7.5450    -8.7660    -3.7990 ca         1 ZHM      -0.021900
     18 C26          8.0620    -8.5440    -5.0880 ca         1 ZHM      -0.082000
     19 C27          8.3690    -7.2370    -5.5060 ca         1 ZHM      -0.085000
     20 N07          8.6300    -7.0170    -0.4910 nb         1 ZHM      -0.741000
     21 N12         12.4860    -4.9690     0.9260 nc         1 ZHM      -0.366000
     22 N13         12.7340    -5.8410    -0.0100 nd         1 ZHM      -0.193800
     23 N14         11.5750    -6.5390    -0.2410 na         1 ZHM       0.158800
     24 N18         12.4780    -9.1750    -3.5500 n7         1 ZHM      -0.857400
     25 Br25         7.1550   -10.5580    -3.2420 br         1 ZHM      -0.068100
     26 H111        11.2620    -3.2490     2.4230 hc         1 ZHM       0.048700
     27 H112         9.6260    -3.8010     2.0570 hc         1 ZHM       0.048700
     28 H113        10.5840    -4.6120     3.3220 hc         1 ZHM       0.048700
     29 H151        10.6760    -8.3130    -0.9520 h1         1 ZHM       0.075700
     30 H031         7.4480    -5.5270    -2.6910 ha         1 ZHM       0.147000
     31 H162        12.1410    -6.4740    -2.9380 hc         1 ZHM       0.067950
     32 H161        10.3960    -6.5650    -2.7260 hc         1 ZHM       0.067950
     33 H172        11.1720    -7.9450    -4.6810 h1         1 ZHM       0.032950
     34 H171        10.3760    -8.9440    -3.4460 h1         1 ZHM       0.032950
     35 H192        11.8560   -10.3820    -1.9210 h1         1 ZHM       0.032950
     36 H191        13.6140   -10.3110    -2.1660 h1         1 ZHM       0.032950
     37 H202        12.9020    -8.9930    -0.1420 hc         1 ZHM       0.067950
     38 H201        13.6950    -7.9850    -1.3530 hc         1 ZHM       0.067950
     39 H211         8.7720    -5.9530     2.7190 ha         1 ZHM       0.139000
     40 H221         6.3680    -6.6030     2.6580 ha         1 ZHM       0.128000
     41 H231         5.4460    -7.5530     0.5140 ha         1 ZHM       0.145000
     42 H261         8.2320    -9.3830    -5.7590 ha         1 ZHM       0.134000
     43 H271         8.7760    -7.0650    -6.5000 ha         1 ZHM       0.137000
     44 H181        12.3950    -9.9610    -4.2080 hn         1 ZHM       0.413000
     45 O05          6.7990    -7.9080    -1.6740 os         1 ZHM      -0.361400
     46 Br01         8.5770    -4.3780    -5.2030 br         1 ZHM      -0.073100
@<TRIPOS>BOND
     1     1     2 1   
     2     1     9 2   
     3     1    21 1   
     4     2    26 1   
     5     2    27 1   
     6     2    28 1   
     7     3    10 1   
     8     3    13 1   
     9     3    23 1   
    10     3    29 1   
    11     4     5 ar  
    12     4    19 ar  
    13     4    46 1   
    14     5     6 ar  
    15     5    30 1   
    16     6    17 ar  
    17     6    45 1   
    18     7    16 ar  
    19     7    20 ar  
    20     7    45 1   
    21     8     9 1   
    22     8    14 ar  
    23     8    20 ar  
    24     9    23 1   
    25    10    11 1   
    26    10    31 1   
    27    10    32 1   
    28    11    24 1   
    29    11    33 1   
    30    11    34 1   
    31    12    13 1   
    32    12    24 1   
    33    12    35 1   
    34    12    36 1   
    35    13    37 1   
    36    13    38 1   
    37    14    15 ar  
    38    14    39 1   
    39    15    16 ar  
    40    15    40 1   
    41    16    41 1   
    42    17    18 ar  
    43    17    25 1   
    44    18    19 ar  
    45    18    42 1   
    46    19    43 1   
    47    21    22 2   
    48    22    23 1   
    49    24    44 1   
@<TRIPOS>SUBSTRUCTURE
     1 ZHM         1 TEMP              0 ****  ****    0 ROOT
