@<TRIPOS>MOLECULE
ZHM
   46    49     1     0     0
SMALL
bcc


@<TRIPOS>ATOM
      1 C10         11.1260    -5.0160     1.0400 cc         1 ZHM       0.295600
      2 C11         10.5830    -4.0800     2.0600 c3         1 ZHM      -0.112400
      3 C15         11.4480    -7.7090    -1.3250 c6         1 ZHM       0.068000
      4 C02          7.7540    -5.9120    -4.7210 ca         1 ZHM      -0.003900
      5 C03          7.1910    -6.0550    -3.4630 ca         1 ZHM      -0.097000
      6 C04          7.1790    -7.3070    -2.8680 ca         1 ZHM       0.139100
      7 C06          7.2390    -7.2210    -0.5260 ca         1 ZHM       0.649600
      8 C08          9.1440    -6.5660     0.5220 ca         1 ZHM       0.530800
      9 C09         10.5150    -6.0770     0.4020 cd         1 ZHM      -0.276100
     10 C16         11.5720    -7.2820    -2.7840 c6         1 ZHM      -0.086400
     11 C17         11.6430    -8.5110    -3.6790 c6         1 ZHM       0.158300
     12 C19         12.5430    -9.8650    -1.9240 c6         1 ZHM       0.158300
     13 C20         12.5410    -8.7030    -0.9420 c6         1 ZHM      -0.086400
     14 C21          8.5560    -6.6970     1.7700 ca         1 ZHM      -0.252300
     15 C22          7.2300    -7.1130     1.8320 ca         1 ZHM      -0.067000
     16 C23          6.5410    -7.3840     0.6690 ca         1 ZHM      -0.248300
     17 C24          7.7370    -8.3970    -3.5210 ca         1 ZHM      -0.021900
     18 C26          8.2840    -8.2440    -4.7860 ca         1 ZHM      -0.100000
     19 C27          8.3000    -6.9970    -5.3910 ca         1 ZHM      -0.103000
     20 N07          8.4840    -6.8330    -0.6110 nb         1 ZHM      -0.741000
     21 N12         12.3780    -4.9160     0.5530 nc         1 ZHM      -0.366000
     22 N13         12.5710    -5.8440    -0.3230 nd         1 ZHM      -0.193800
     23 N14         11.4670    -6.5510    -0.4340 na         1 ZHM       0.137400
     24 N18         12.7420    -9.3650    -3.2710 n7         1 ZHM      -0.802200
     25 BR25         7.7410   -10.0760    -2.6820 br         1 ZHM      -0.068100
     26 H111        11.1290    -3.1380     2.0370 hc         1 ZHM       0.048700
     27 H112         9.5290    -3.8670     1.8820 hc         1 ZHM       0.048700
     28 H113        10.6680    -4.4860     3.0690 hc         1 ZHM       0.048700
     29 H151        10.4770    -8.1860    -1.1840 h1         1 ZHM       0.075700
     30 H031         6.7520    -5.2150    -2.9390 ha         1 ZHM       0.165000
     31 H162        12.4750    -6.6810    -2.9150 hc         1 ZHM       0.067950
     32 H161        10.7150    -6.6650    -3.0660 hc         1 ZHM       0.067950
     33 H172        11.7920    -8.1990    -4.7140 h1         1 ZHM       0.032950
     34 H171        10.6750    -9.0350    -3.6410 h1         1 ZHM       0.032950
     35 H192        11.6010   -10.4290    -1.8180 h1         1 ZHM       0.032950
     36 H191        13.3530   -10.5520    -1.6730 h1         1 ZHM       0.032950
     37 H202        12.3730    -9.0690     0.0730 hc         1 ZHM       0.067950
     38 H201        13.5160    -8.2120    -0.9640 hc         1 ZHM       0.067950
     39 H211         9.1180    -6.4940     2.6710 ha         1 ZHM       0.157000
     40 H221         6.7410    -7.2280     2.7900 ha         1 ZHM       0.146000
     41 H231         5.5090    -7.7060     0.6750 ha         1 ZHM       0.163000
     42 H261         8.7090    -9.0910    -5.3080 ha         1 ZHM       0.152000
     43 H271         8.7330    -6.8900    -6.3760 ha         1 ZHM       0.155000
     44 H181        12.8190   -10.1430    -3.9130 hn         1 ZHM       0.357800
     45 O05          6.5540    -7.4770    -1.6680 os         1 ZHM      -0.361400
     46 BR01         7.7720    -4.2140    -5.5350 br         1 ZHM      -0.073100
@<TRIPOS>BOND
     1     1     2 1   
     2     1     9 2   
     3     1    21 1   
     4     2    26 1   
     5     2    27 1   
     6     2    28 1   
     7     3    10 1   
     8     3    13 1   
     9     3    23 1   
    10     3    29 1   
    11     4     5 ar  
    12     4    19 ar  
    13     4    46 1   
    14     5     6 ar  
    15     5    30 1   
    16     6    17 ar  
    17     6    45 1   
    18     7    16 ar  
    19     7    20 ar  
    20     7    45 1   
    21     8     9 1   
    22     8    14 ar  
    23     8    20 ar  
    24     9    23 1   
    25    10    11 1   
    26    10    31 1   
    27    10    32 1   
    28    11    24 1   
    29    11    33 1   
    30    11    34 1   
    31    12    13 1   
    32    12    24 1   
    33    12    35 1   
    34    12    36 1   
    35    13    37 1   
    36    13    38 1   
    37    14    15 ar  
    38    14    39 1   
    39    15    16 ar  
    40    15    40 1   
    41    16    41 1   
    42    17    18 ar  
    43    17    25 1   
    44    18    19 ar  
    45    18    42 1   
    46    19    43 1   
    47    21    22 2   
    48    22    23 1   
    49    24    44 1   
@<TRIPOS>SUBSTRUCTURE
     1 ZHM         1 TEMP              0 ****  ****    0 ROOT
