@<TRIPOS>MOLECULE
ZHN
   61    61     1     0     0
SMALL
abcg2


@<TRIPOS>ATOM
      1 O28         -3.6200    -0.1180    -0.8490 o          1 ZHN      -0.479000
      2 C20         -3.1490     0.2260     0.2050 c          1 ZHN       0.615100
      3 O27         -3.0550     1.4850     0.6020 os         1 ZHN      -0.450100
      4 C22         -3.4880     2.5170    -0.2950 c3         1 ZHN       0.170600
      5 C23         -3.3710     3.8390     0.4320 c3         1 ZHN      -0.084400
      6 C24         -3.7250     5.0120    -0.4730 c3         1 ZHN      -0.075400
      7 C25         -3.6560     6.3520     0.2490 c3         1 ZHN      -0.074400
      8 C26         -3.9660     7.5300    -0.6620 c3         1 ZHN      -0.089100
      9 C19         -2.6620    -0.7220     1.2750 c3         1 ZHN      -0.099100
     10 C4          -2.2420    -2.0480     0.7080 ca         1 ZHN       0.042700
     11 C3          -3.1130    -3.1170     0.8180 ca         1 ZHN      -0.176000
     12 C2          -2.7650    -4.3630     0.2970 ca         1 ZHN       0.203100
     13 O8          -3.6550    -5.3590     0.4260 oh         1 ZHN      -0.524100
     14 C5          -0.9840    -2.2160     0.1100 ca         1 ZHN      -0.232600
     15 C6          -0.6610    -3.4660    -0.4290 ca         1 ZHN       0.216100
     16 O7           0.5090    -3.5810    -1.0780 oh         1 ZHN      -0.529100
     17 C1          -1.5430    -4.5370    -0.3370 ca         1 ZHN      -0.314000
     18 C9          -0.0400    -1.0700     0.0010 c          1 ZHN       0.602700
     19 O18         -0.4260     0.0020    -0.4210 o          1 ZHN      -0.526100
     20 C10          1.3580    -1.2250     0.5490 c3         1 ZHN      -0.163400
     21 C11          2.4210    -0.4460    -0.2140 c3         1 ZHN      -0.066400
     22 C12          3.7670    -0.4490     0.4980 c3         1 ZHN      -0.074400
     23 C13          4.8370     0.3250    -0.2620 c3         1 ZHN      -0.074400
     24 C14          6.1580     0.4280     0.4900 c3         1 ZHN      -0.074400
     25 C15          7.2200     1.2100    -0.2710 c3         1 ZHN      -0.075400
     26 C16          8.5250     1.3680     0.5000 c3         1 ZHN      -0.074400
     27 C17          9.5750     2.1550    -0.2730 c3         1 ZHN      -0.088100
     28 H1          -2.8570     2.5070    -1.1890 h1         1 ZHN       0.050200
     29 H2          -4.5190     2.3340    -0.6080 h1         1 ZHN       0.050200
     30 H3          -4.0310     3.8340     1.3050 hc         1 ZHN       0.051200
     31 H4          -2.3500     3.9630     0.8040 hc         1 ZHN       0.051200
     32 H5          -3.0450     5.0280    -1.3320 hc         1 ZHN       0.040700
     33 H6          -4.7320     4.8730    -0.8830 hc         1 ZHN       0.040700
     34 H7          -4.3550     6.3450     1.0910 hc         1 ZHN       0.037700
     35 H8          -2.6590     6.4760     0.6840 hc         1 ZHN       0.037700
     36 H9          -4.9640     7.4430    -1.0960 hc         1 ZHN       0.031700
     37 H10         -3.9250     8.4760    -0.1200 hc         1 ZHN       0.031700
     38 H11         -3.2540     7.5910    -1.4870 hc         1 ZHN       0.031700
     39 H12         -1.8690    -0.2520     1.8580 hc         1 ZHN       0.079700
     40 H13         -3.4930    -0.8720     1.9710 hc         1 ZHN       0.079700
     41 H14         -4.0710    -2.9930     1.3080 ha         1 ZHN       0.136000
     42 H15         -3.3180    -6.1710     0.0300 ho         1 ZHN       0.469000
     43 H16          0.6400    -4.4840    -1.3910 ho         1 ZHN       0.470000
     44 H17         -1.2800    -5.4960    -0.7710 ha         1 ZHN       0.117000
     45 H18          1.2900    -0.8460     1.5780 hc         1 ZHN       0.060700
     46 H19          1.6360    -2.2730     0.6450 hc         1 ZHN       0.060700
     47 H20          2.5340    -0.8750    -1.2150 hc         1 ZHN       0.052700
     48 H21          2.0920     0.5860    -0.3540 hc         1 ZHN       0.052700
     49 H22          3.6430    -0.0120     1.4960 hc         1 ZHN       0.035700
     50 H23          4.1040    -1.4790     0.6580 hc         1 ZHN       0.035700
     51 H24          5.0070    -0.1480    -1.2350 hc         1 ZHN       0.039200
     52 H25          4.4670     1.3330    -0.4780 hc         1 ZHN       0.039200
     53 H26          5.9820     0.9050     1.4610 hc         1 ZHN       0.036200
     54 H27          6.5350    -0.5770     0.7130 hc         1 ZHN       0.036200
     55 H28          7.4220     0.7150    -1.2270 hc         1 ZHN       0.037200
     56 H29          6.8280     2.2020    -0.5230 hc         1 ZHN       0.037200
     57 H30          8.3210     1.8650     1.4540 hc         1 ZHN       0.036200
     58 H31          8.9200     0.3800     0.7530 hc         1 ZHN       0.036200
     59 H32         10.4970     2.2670     0.2990 hc         1 ZHN       0.031367
     60 H33          9.8260     1.6590    -1.2120 hc         1 ZHN       0.031367
     61 H34          9.2130     3.1560    -0.5180 hc         1 ZHN       0.031367
@<TRIPOS>BOND
     1     1     2 2   
     2     2     3 1   
     3     2     9 1   
     4     3     4 1   
     5     4     5 1   
     6     4    28 1   
     7     4    29 1   
     8     5     6 1   
     9     5    30 1   
    10     5    31 1   
    11     6     7 1   
    12     6    32 1   
    13     6    33 1   
    14     7     8 1   
    15     7    34 1   
    16     7    35 1   
    17     8    36 1   
    18     8    37 1   
    19     8    38 1   
    20     9    10 1   
    21     9    39 1   
    22     9    40 1   
    23    10    11 ar  
    24    10    14 ar  
    25    11    12 ar  
    26    11    41 1   
    27    12    13 1   
    28    12    17 ar  
    29    13    42 1   
    30    14    15 ar  
    31    14    18 1   
    32    15    16 1   
    33    15    17 ar  
    34    16    43 1   
    35    17    44 1   
    36    18    19 2   
    37    18    20 1   
    38    20    21 1   
    39    20    45 1   
    40    20    46 1   
    41    21    22 1   
    42    21    47 1   
    43    21    48 1   
    44    22    23 1   
    45    22    49 1   
    46    22    50 1   
    47    23    24 1   
    48    23    51 1   
    49    23    52 1   
    50    24    25 1   
    51    24    53 1   
    52    24    54 1   
    53    25    26 1   
    54    25    55 1   
    55    25    56 1   
    56    26    27 1   
    57    26    57 1   
    58    26    58 1   
    59    27    59 1   
    60    27    60 1   
    61    27    61 1   
@<TRIPOS>SUBSTRUCTURE
     1 ZHN         1 TEMP              0 ****  ****    0 ROOT
