@<TRIPOS>MOLECULE
ZHN
   61    61     1     0     0
SMALL
No Charge or Current Charge


@<TRIPOS>ATOM
      1 O28         -4.5330    -0.4530     0.5180 o          1 ZHN      -0.479000
      2 C20         -3.4190    -0.2080     0.9630 c          1 ZHN       0.615100
      3 O27         -2.8510     1.0380     0.9930 os         1 ZHN      -0.450100
      4 C22         -3.5730     2.1260     0.3950 c3         1 ZHN       0.170600
      5 C23         -2.6850     3.3790     0.5080 c3         1 ZHN      -0.084400
      6 C24         -3.3330     4.6360    -0.1120 c3         1 ZHN      -0.075400
      7 C25         -2.4410     5.8920    -0.0010 c3         1 ZHN      -0.074400
      8 C26         -3.0870     7.1470    -0.6200 c3         1 ZHN      -0.089100
      9 C19         -2.5110    -1.2530     1.6100 c3         1 ZHN      -0.099100
     10 C4          -2.0000    -2.2740     0.5900 ca         1 ZHN       0.042700
     11 C3          -2.4160    -3.6140     0.7100 ca         1 ZHN      -0.176000
     12 C2          -1.9740    -4.5840    -0.1960 ca         1 ZHN       0.203100
     13 O8          -2.3870    -5.8720    -0.0630 oh         1 ZHN      -0.524100
     14 C5          -1.1230    -1.9210    -0.4670 ca         1 ZHN      -0.232600
     15 C6          -0.6880    -2.9070    -1.3700 ca         1 ZHN       0.216100
     16 O7           0.1630    -2.5890    -2.3820 oh         1 ZHN      -0.529100
     17 C1          -1.1100    -4.2340    -1.2360 ca         1 ZHN      -0.314000
     18 C9          -0.6500    -0.5130    -0.6600 c          1 ZHN       0.602700
     19 O18         -1.1440     0.2010    -1.5250 o          1 ZHN      -0.526100
     20 C10          0.4520     0.0120     0.2690 c3         1 ZHN      -0.163400
     21 C11          1.8340    -0.0140    -0.4230 c3         1 ZHN      -0.066400
     22 C12          2.9690     0.5150     0.4810 c3         1 ZHN      -0.074400
     23 C13          4.3510     0.4900    -0.2080 c3         1 ZHN      -0.074400
     24 C14          5.4860     1.0190     0.6960 c3         1 ZHN      -0.074400
     25 C15          6.8680     0.9940     0.0080 c3         1 ZHN      -0.075400
     26 C16          8.0030     1.5240     0.9110 c3         1 ZHN      -0.074400
     27 C17          9.3830     1.4990     0.2250 c3         1 ZHN      -0.088100
     28 H1          -3.7820     1.9200    -0.6640 h1         1 ZHN       0.050200
     29 H2          -4.5260     2.2970     0.9140 h1         1 ZHN       0.050200
     30 H3          -2.4670     3.5680     1.5670 hc         1 ZHN       0.051200
     31 H4          -1.7270     3.1830     0.0100 hc         1 ZHN       0.051200
     32 H5          -3.5540     4.4430    -1.1700 hc         1 ZHN       0.040700
     33 H6          -4.2920     4.8300     0.3850 hc         1 ZHN       0.040700
     34 H7          -2.2200     6.0900     1.0550 hc         1 ZHN       0.037700
     35 H8          -1.4820     5.7030    -0.4990 hc         1 ZHN       0.037700
     36 H9          -4.0330     7.3840    -0.1190 hc         1 ZHN       0.031700
     37 H10         -2.4180     8.0100    -0.5180 hc         1 ZHN       0.031700
     38 H11         -3.2880     6.9940    -1.6880 hc         1 ZHN       0.031700
     39 H12         -1.6670    -0.7550     2.0980 hc         1 ZHN       0.079700
     40 H13         -3.0980    -1.7590     2.3840 hc         1 ZHN       0.079700
     41 H14         -3.0880    -3.9100     1.5110 ha         1 ZHN       0.136000
     42 H15         -1.9770    -6.3960    -0.7830 ho         1 ZHN       0.469000
     43 H16          0.3320    -3.4030    -2.9000 ho         1 ZHN       0.470000
     44 H17         -0.7660    -4.9910    -1.9370 ha         1 ZHN       0.117000
     45 H18          0.2160     1.0420     0.5590 hc         1 ZHN       0.060700
     46 H19          0.5150    -0.6320     1.1530 hc         1 ZHN       0.060700
     47 H20          2.0660    -1.0430    -0.7280 hc         1 ZHN       0.052700
     48 H21          1.7920     0.5880    -1.3390 hc         1 ZHN       0.052700
     49 H22          2.7370     1.5440     0.7850 hc         1 ZHN       0.035700
     50 H23          3.0120    -0.0880     1.3960 hc         1 ZHN       0.035700
     51 H24          4.5830    -0.5390    -0.5120 hc         1 ZHN       0.039200
     52 H25          4.3090     1.0930    -1.1230 hc         1 ZHN       0.039200
     53 H26          5.2540     2.0480     1.0000 hc         1 ZHN       0.036200
     54 H27          5.5290     0.4160     1.6110 hc         1 ZHN       0.036200
     55 H28          7.1010    -0.0340    -0.2970 hc         1 ZHN       0.037200
     56 H29          6.8260     1.5980    -0.9080 hc         1 ZHN       0.037200
     57 H30          7.7760     2.5530     1.2160 hc         1 ZHN       0.036200
     58 H31          8.0500     0.9220     1.8270 hc         1 ZHN       0.036200
     59 H32         10.1540     1.8830     0.9030 hc         1 ZHN       0.031367
     60 H33          9.6550     0.4760    -0.0610 hc         1 ZHN       0.031367
     61 H34          9.3780     2.1220    -0.6780 hc         1 ZHN       0.031367
@<TRIPOS>BOND
     1     1     2 2   
     2     2     3 1   
     3     2     9 1   
     4     3     4 1   
     5     4     5 1   
     6     4    28 1   
     7     4    29 1   
     8     5     6 1   
     9     5    30 1   
    10     5    31 1   
    11     6     7 1   
    12     6    32 1   
    13     6    33 1   
    14     7     8 1   
    15     7    34 1   
    16     7    35 1   
    17     8    36 1   
    18     8    37 1   
    19     8    38 1   
    20     9    10 1   
    21     9    39 1   
    22     9    40 1   
    23    10    11 ar  
    24    10    14 ar  
    25    11    12 ar  
    26    11    41 1   
    27    12    13 1   
    28    12    17 ar  
    29    13    42 1   
    30    14    15 ar  
    31    14    18 1   
    32    15    16 1   
    33    15    17 ar  
    34    16    43 1   
    35    17    44 1   
    36    18    19 2   
    37    18    20 1   
    38    20    21 1   
    39    20    45 1   
    40    20    46 1   
    41    21    22 1   
    42    21    47 1   
    43    21    48 1   
    44    22    23 1   
    45    22    49 1   
    46    22    50 1   
    47    23    24 1   
    48    23    51 1   
    49    23    52 1   
    50    24    25 1   
    51    24    53 1   
    52    24    54 1   
    53    25    26 1   
    54    25    55 1   
    55    25    56 1   
    56    26    27 1   
    57    26    57 1   
    58    26    58 1   
    59    27    59 1   
    60    27    60 1   
    61    27    61 1   
@<TRIPOS>SUBSTRUCTURE
     1 ZHN         1 TEMP              0 ****  ****    0 ROOT
