@<TRIPOS>MOLECULE
ZHO
   64    69     1     0     0
SMALL
abcg2


@<TRIPOS>ATOM
      1 N3           7.5220     8.1780    -2.0510 nc         1 ZHO      -0.790000
      2 C4           8.6160     7.6210    -1.6050 cd         1 ZHO       0.686900
      3 C7           9.6240     7.1710    -2.5280 cd         1 ZHO      -0.196000
      4 C10         10.5000     6.8610    -4.4750 cd         1 ZHO       0.339800
      5 C17         -0.0870    13.7810    -3.5220 c6         1 ZHO       0.158300
      6 C20          4.2250    10.1000    -3.8770 ca         1 ZHO      -0.052200
      7 C21          4.4060     9.3990    -5.0710 ca         1 ZHO       0.043400
      8 C22          3.4450     9.5190    -6.0770 ca         1 ZHO      -0.029000
      9 C24          2.1720    11.0340    -4.6320 ca         1 ZHO       0.301000
     10 C28          4.7100     9.7540    -0.7060 ca         1 ZHO      -0.101300
     11 C1           8.2520     7.9590    -4.3290 cd         1 ZHO      -0.165000
     12 C2           7.3460     8.3390    -3.3930 cc         1 ZHO       0.348700
     13 N5           8.8230     7.4520    -0.2980 nu         1 ZHO      -0.915100
     14 N6           9.3990     7.3640    -3.8560 na         1 ZHO       0.045200
     15 N8          10.7810     6.5890    -2.3450 nc         1 ZHO      -0.085000
     16 N9          11.3200     6.4000    -3.5620 nc         1 ZHO      -0.364700
     17 C11         10.6990     6.8590    -5.9400 c3         1 ZHO      -0.104400
     18 C12          7.8870     7.8980     0.7030 c3         1 ZHO       0.222100
     19 N13          5.5700     8.6820    -5.0200 nd         1 ZHO      -0.571100
     20 C14         -0.2460    11.2290    -4.7140 c6         1 ZHO       0.191800
     21 N15          1.0500    11.8600    -4.4980 nh         1 ZHO      -0.780400
     22 C16          1.0160    12.7520    -3.3570 c6         1 ZHO       0.191800
     23 N18         -1.3720    13.1410    -3.6990 n3         1 ZHO      -0.713600
     24 C19         -1.3330    12.2760    -4.8590 c6         1 ZHO       0.158300
     25 C23          2.3560    10.3310    -5.8500 ca         1 ZHO      -0.156000
     26 C25          3.1230    10.9110    -3.6220 ca         1 ZHO      -0.177000
     27 N26          5.3150     9.7940    -3.1030 na         1 ZHO      -0.155600
     28 C27          5.5410    10.3770    -1.8000 c3         1 ZHO       0.133900
     29 C29          4.1740     8.4750    -0.8110 ca         1 ZHO      -0.097500
     30 C30          3.4460     7.9280     0.2380 ca         1 ZHO      -0.112000
     31 C31          3.2500     8.6500     1.4070 ca         1 ZHO      -0.109000
     32 C32          3.7840     9.9280     1.5190 ca         1 ZHO      -0.112000
     33 C33          4.5030    10.4750     0.4670 ca         1 ZHO      -0.097500
     34 C34          6.0840     8.9320    -3.8440 cc         1 ZHO       0.358800
     35 C35         -2.4410    14.1080    -3.7910 c3         1 ZHO       0.152100
     36 H49          0.1590    14.4440    -4.3700 h1         1 ZHO       0.039200
     37 H48         -0.1150    14.4050    -2.6250 h1         1 ZHO       0.039200
     38 H52          3.5580     9.0020    -7.0220 ha         1 ZHO       0.127000
     39 H36          8.1390     8.0840    -5.3940 h4         1 ZHO       0.178000
     40 H37          9.6880     7.0280    -0.0050 hn         1 ZHO       0.524000
     41 H40         11.6540     6.3980    -6.1770 hc         1 ZHO       0.063700
     42 H38          9.9110     6.3000    -6.4480 hc         1 ZHO       0.063700
     43 H39         10.6980     7.8730    -6.3420 hc         1 ZHO       0.063700
     44 H41          8.2950     7.6610     1.6810 h1         1 ZHO       0.046367
     45 H43          7.7220     8.9750     0.6460 h1         1 ZHO       0.046367
     46 H42          6.9200     7.4040     0.5990 h1         1 ZHO       0.046367
     47 H45         -0.4930    10.5570    -3.8790 h1         1 ZHO       0.044700
     48 H44         -0.2250    10.6260    -5.6200 h1         1 ZHO       0.044700
     49 H46          0.8630    12.2070    -2.4130 h1         1 ZHO       0.044700
     50 H47          1.9700    13.2780    -3.2800 h1         1 ZHO       0.044700
     51 H50         -1.1630    12.8470    -5.7880 h1         1 ZHO       0.039200
     52 H51         -2.2950    11.7690    -4.9630 h1         1 ZHO       0.039200
     53 H53          1.6290    10.4580    -6.6410 ha         1 ZHO       0.118000
     54 H54          3.0120    11.4100    -2.6690 ha         1 ZHO       0.124000
     55 H55          6.5960    10.2960    -1.5540 h1         1 ZHO       0.072200
     56 H56          5.3160    11.4430    -1.8710 h1         1 ZHO       0.072200
     57 H57          4.3170     7.8930    -1.7130 ha         1 ZHO       0.118000
     58 H58          3.0310     6.9340     0.1390 ha         1 ZHO       0.113500
     59 H59          2.6830     8.2220     2.2240 ha         1 ZHO       0.113000
     60 H60          3.6330    10.5020     2.4240 ha         1 ZHO       0.113500
     61 H61          4.9080    11.4770     0.5590 ha         1 ZHO       0.118000
     62 H63         -2.4770    14.7130    -2.8840 h1         1 ZHO       0.031367
     63 H64         -2.3320    14.7920    -4.6480 h1         1 ZHO       0.031367
     64 H62         -3.4000    13.5980    -3.8920 h1         1 ZHO       0.031367
@<TRIPOS>BOND
     1     1     2 2   
     2     1    12 1   
     3     2     3 1   
     4     2    13 1   
     5     3    14 1   
     6     3    15 2   
     7     4    14 1   
     8     4    16 2   
     9     4    17 1   
    10     5    22 1   
    11     5    23 1   
    12     5    36 1   
    13     5    37 1   
    14     6     7 ar  
    15     6    26 ar  
    16     6    27 1   
    17     7     8 ar  
    18     7    19 1   
    19     8    25 ar  
    20     8    38 1   
    21     9    21 1   
    22     9    25 ar  
    23     9    26 ar  
    24    10    28 1   
    25    10    29 ar  
    26    10    33 ar  
    27    11    12 2   
    28    11    14 1   
    29    11    39 1   
    30    12    34 1   
    31    13    18 1   
    32    13    40 1   
    33    15    16 1   
    34    17    41 1   
    35    17    42 1   
    36    17    43 1   
    37    18    44 1   
    38    18    45 1   
    39    18    46 1   
    40    19    34 2   
    41    20    21 1   
    42    20    24 1   
    43    20    47 1   
    44    20    48 1   
    45    21    22 1   
    46    22    49 1   
    47    22    50 1   
    48    23    24 1   
    49    23    35 1   
    50    24    51 1   
    51    24    52 1   
    52    25    53 1   
    53    26    54 1   
    54    27    28 1   
    55    27    34 1   
    56    28    55 1   
    57    28    56 1   
    58    29    30 ar  
    59    29    57 1   
    60    30    31 ar  
    61    30    58 1   
    62    31    32 ar  
    63    31    59 1   
    64    32    33 ar  
    65    32    60 1   
    66    33    61 1   
    67    35    62 1   
    68    35    63 1   
    69    35    64 1   
@<TRIPOS>SUBSTRUCTURE
     1 ZHO         1 TEMP              0 ****  ****    0 ROOT
