@<TRIPOS>MOLECULE
ZHO
   64    69     1     0     0
SMALL
No Charge or Current Charge


@<TRIPOS>ATOM
      1 N3           7.7320     8.6470    -1.9200 nc         1 ZHO      -0.790000
      2 C4           8.8070     8.0000    -1.5250 cd         1 ZHO       0.686900
      3 C7           9.6420     7.3040    -2.4330 cd         1 ZHO      -0.196000
      4 C10         10.2270     6.5070    -4.3930 cd         1 ZHO       0.339800
      5 C17         -0.3690    13.9390    -3.6500 c6         1 ZHO       0.158300
      6 C20          4.2360    10.2970    -3.8730 ca         1 ZHO      -0.052200
      7 C21          4.5390     9.8050    -5.1080 ca         1 ZHO       0.043400
      8 C22          3.6710    10.0020    -6.1890 ca         1 ZHO      -0.029000
      9 C24          2.1470    11.2120    -4.6820 ca         1 ZHO       0.301000
     10 C28          4.8350     9.5160    -0.5610 ca         1 ZHO      -0.101300
     11 C1           8.1840     7.8790    -4.2300 cd         1 ZHO      -0.165000
     12 C2           7.4060     8.5690    -3.2860 cc         1 ZHO       0.348700
     13 N5           9.0760     8.0040    -0.1990 nu         1 ZHO      -0.915100
     14 N6           9.3630     7.3320    -3.7370 na         1 ZHO       0.045200
     15 N8          10.7190     6.5590    -2.2340 nc         1 ZHO      -0.085000
     16 N9          11.0910     6.0480    -3.4890 nc         1 ZHO      -0.364700
     17 C11         10.2420     6.1650    -5.8580 c3         1 ZHO      -0.104400
     18 C12          8.1750     8.4530     0.8790 c3         1 ZHO       0.222100
     19 N13          5.7460     9.1190    -5.1060 nd         1 ZHO      -0.571100
     20 C14         -0.3700    11.2860    -4.8780 c6         1 ZHO       0.191800
     21 N15          0.9340    11.9150    -4.4900 nh         1 ZHO      -0.780400
     22 C16          0.7860    12.9180    -3.3860 c6         1 ZHO       0.191800
     23 N18         -1.6720    13.2740    -3.9580 n3         1 ZHO      -0.713600
     24 C19         -1.5020    12.3390    -5.1120 c6         1 ZHO       0.158300
     25 C23          2.4720    10.7130    -5.9670 ca         1 ZHO      -0.156000
     26 C25          3.0480    10.9990    -3.6130 ca         1 ZHO      -0.177000
     27 N26          5.2680     9.9470    -3.0470 na         1 ZHO      -0.155600
     28 C27          5.3600    10.4510    -1.6560 c3         1 ZHO       0.133900
     29 C29          4.2510     8.2610    -0.8500 ca         1 ZHO      -0.097500
     30 C30          3.7940     7.4340     0.1910 ca         1 ZHO      -0.112000
     31 C31          3.9130     7.8500     1.5270 ca         1 ZHO      -0.109000
     32 C32          4.4870     9.0960     1.8230 ca         1 ZHO      -0.112000
     33 C33          4.9440     9.9250     0.7830 ca         1 ZHO      -0.097500
     34 C34          6.1830     9.1910    -3.8210 cc         1 ZHO       0.358800
     35 C35         -2.7710    14.2400    -4.1640 c3         1 ZHO       0.152100
     36 H49         -0.0730    14.5880    -4.4880 h1         1 ZHO       0.039200
     37 H48         -0.4710    14.5850    -2.7670 h1         1 ZHO       0.039200
     38 H52          3.9160     9.6130    -7.1740 ha         1 ZHO       0.127000
     39 H36          7.9600     7.7730    -5.2840 h4         1 ZHO       0.178000
     40 H37          9.8740     7.4220     0.0460 hn         1 ZHO       0.524000
     41 H40         11.1120     5.5500    -6.1130 hc         1 ZHO       0.063700
     42 H38          9.3410     5.6060    -6.1360 hc         1 ZHO       0.063700
     43 H39         10.2820     7.0730    -6.4700 hc         1 ZHO       0.063700
     44 H41          8.6250     8.2630     1.8620 h1         1 ZHO       0.046367
     45 H43          7.9770     9.5300     0.7920 h1         1 ZHO       0.046367
     46 H42          7.2170     7.9190     0.8290 h1         1 ZHO       0.046367
     47 H45         -0.6930    10.5950    -4.0860 h1         1 ZHO       0.044700
     48 H44         -0.2590    10.6910    -5.7960 h1         1 ZHO       0.044700
     49 H46          0.5850    12.3980    -2.4380 h1         1 ZHO       0.044700
     50 H47          1.7210    13.4840    -3.2590 h1         1 ZHO       0.044700
     51 H50         -1.2620    12.9080    -6.0230 h1         1 ZHO       0.039200
     52 H51         -2.4410    11.8030    -5.3090 h1         1 ZHO       0.039200
     53 H53          1.7960    10.8820    -6.7990 ha         1 ZHO       0.118000
     54 H54          2.8190    11.3530    -2.6140 ha         1 ZHO       0.124000
     55 H55          6.4010    10.7140    -1.4400 h1         1 ZHO       0.072200
     56 H56          4.8070    11.3960    -1.5920 h1         1 ZHO       0.072200
     57 H57          4.1480     7.9150    -1.8750 ha         1 ZHO       0.118000
     58 H58          3.3480     6.4690    -0.0400 ha         1 ZHO       0.113500
     59 H59          3.5590     7.2080     2.3310 ha         1 ZHO       0.113000
     60 H60          4.5790     9.4210     2.8570 ha         1 ZHO       0.113500
     61 H61          5.3890    10.8880     1.0250 ha         1 ZHO       0.118000
     62 H63         -2.8970    14.8780    -3.2790 h1         1 ZHO       0.031367
     63 H64         -2.5690    14.8870    -5.0290 h1         1 ZHO       0.031367
     64 H62         -3.7200    13.7160    -4.3420 h1         1 ZHO       0.031367
@<TRIPOS>BOND
     1     1     2 2   
     2     1    12 1   
     3     2     3 1   
     4     2    13 1   
     5     3    14 1   
     6     3    15 2   
     7     4    14 1   
     8     4    16 2   
     9     4    17 1   
    10     5    22 1   
    11     5    23 1   
    12     5    36 1   
    13     5    37 1   
    14     6     7 ar  
    15     6    26 ar  
    16     6    27 1   
    17     7     8 ar  
    18     7    19 1   
    19     8    25 ar  
    20     8    38 1   
    21     9    21 1   
    22     9    25 ar  
    23     9    26 ar  
    24    10    28 1   
    25    10    29 ar  
    26    10    33 ar  
    27    11    12 2   
    28    11    14 1   
    29    11    39 1   
    30    12    34 1   
    31    13    18 1   
    32    13    40 1   
    33    15    16 1   
    34    17    41 1   
    35    17    42 1   
    36    17    43 1   
    37    18    44 1   
    38    18    45 1   
    39    18    46 1   
    40    19    34 2   
    41    20    21 1   
    42    20    24 1   
    43    20    47 1   
    44    20    48 1   
    45    21    22 1   
    46    22    49 1   
    47    22    50 1   
    48    23    24 1   
    49    23    35 1   
    50    24    51 1   
    51    24    52 1   
    52    25    53 1   
    53    26    54 1   
    54    27    28 1   
    55    27    34 1   
    56    28    55 1   
    57    28    56 1   
    58    29    30 ar  
    59    29    57 1   
    60    30    31 ar  
    61    30    58 1   
    62    31    32 ar  
    63    31    59 1   
    64    32    33 ar  
    65    32    60 1   
    66    33    61 1   
    67    35    62 1   
    68    35    63 1   
    69    35    64 1   
@<TRIPOS>SUBSTRUCTURE
     1 ZHO         1 TEMP              0 ****  ****    0 ROOT
