@<TRIPOS>MOLECULE
ZHR
   49    51     1     0     0
SMALL
No Charge or Current Charge


@<TRIPOS>ATOM
      1 C1         -28.2930   -63.2620   -13.6520 c3         1 ZHR      -0.175100
      2 C2         -29.4990   -64.0560   -14.1330 c          1 ZHR       0.604100
      3 O1         -29.6480   -65.2420   -13.8810 o          1 ZHR      -0.593100
      4 N1         -30.3920   -63.3400   -14.8990 ns         1 ZHR      -0.510900
      5 C3         -31.6910   -63.8550   -15.4140 c6         1 ZHR       0.044700
      6 C4         -32.0150   -63.2460   -16.8080 c6         1 ZHR       0.162300
      7 O2         -30.9820   -63.5640   -17.7580 oh         1 ZHR      -0.645000
      8 C5         -33.3930   -63.7500   -17.3320 c6         1 ZHR       0.147300
      9 O3         -33.6910   -63.1290   -18.5980 oh         1 ZHR      -0.711000
     10 C6         -34.4910   -63.4620   -16.2640 c6         1 ZHR       0.149300
     11 C7         -35.8920   -64.0260   -16.6760 c3         1 ZHR       0.168600
     12 O4         -36.9100   -63.8130   -15.6760 oh         1 ZHR      -0.716000
     13 O5         -34.1040   -64.0660   -15.0030 os         1 ZHR      -0.474000
     14 C8         -32.8810   -63.5390   -14.4530 c6         1 ZHR       0.380300
     15 O6         -32.6650   -64.1420   -13.1650 os         1 ZHR      -0.427000
     16 C9         -33.6160   -63.8540   -12.1180 c3         1 ZHR       0.158600
     17 C10        -33.6050   -62.3410   -11.7760 c3         1 ZHR      -0.063100
     18 C11        -32.2100   -61.7390   -11.6060 ca         1 ZHR      -0.093300
     19 C12        -31.8650   -60.5490   -12.3000 ca         1 ZHR      -0.101000
     20 C13        -30.5840   -59.9700   -12.1530 ca         1 ZHR      -0.110000
     21 C14        -29.6690   -60.6030   -11.3040 ca         1 ZHR       0.051100
     22 O7         -28.3770   -60.1880   -11.0450 os         1 ZHR      -0.190200
     23 C15        -27.8710   -61.1430   -10.1580 cc         1 ZHR      -0.071900
     24 C16        -28.8370   -62.0970    -9.8980 cd         1 ZHR      -0.225200
     25 C17        -30.0040   -61.7500   -10.6390 ca         1 ZHR      -0.107800
     26 C18        -31.2610   -62.3540   -10.7540 ca         1 ZHR      -0.041000
     27 H1         -27.6620   -63.8310   -12.9590 hc         1 ZHR       0.062700
     28 H2         -27.7200   -62.9350   -14.5260 hc         1 ZHR       0.062700
     29 H3         -28.6270   -62.3130   -13.2230 hc         1 ZHR       0.062700
     30 H4         -30.1820   -62.3550   -15.0170 hn         1 ZHR       0.307500
     31 H5         -31.6280   -64.9480   -15.5140 h1         1 ZHR       0.121700
     32 H6         -32.0750   -62.1530   -16.6900 h1         1 ZHR       0.039700
     33 H7         -30.1270   -63.4780   -17.2800 ho         1 ZHR       0.451000
     34 H8         -33.3280   -64.8420   -17.4620 h1         1 ZHR       0.063700
     35 H9         -32.8320   -63.1240   -19.0850 ho         1 ZHR       0.508000
     36 H10        -34.5880   -62.3750   -16.1220 h1         1 ZHR       0.060700
     37 H11        -36.1910   -63.5480   -17.6180 h1         1 ZHR       0.033200
     38 H12        -35.7810   -65.1000   -16.8780 h1         1 ZHR       0.033200
     39 H13        -37.7260   -64.2630   -15.9980 ho         1 ZHR       0.505000
     40 H14        -32.9670   -62.4490   -14.3420 h2         1 ZHR       0.023700
     41 H15        -34.6300   -64.1590   -12.4100 h1         1 ZHR       0.061700
     42 H16        -33.3520   -64.4230   -11.2170 h1         1 ZHR       0.061700
     43 H17        -34.1660   -61.8030   -12.5500 hc         1 ZHR       0.052700
     44 H18        -34.1770   -62.1970   -10.8520 hc         1 ZHR       0.052700
     45 H19        -32.5900   -60.0690   -12.9530 ha         1 ZHR       0.111000
     46 H20        -30.3140   -59.0600   -12.6830 ha         1 ZHR       0.130000
     47 H21        -26.8490   -61.0240    -9.8080 h4         1 ZHR       0.239000
     48 H22        -28.7180   -62.9570    -9.2420 ha         1 ZHR       0.218000
     49 H23        -31.4910   -63.2640   -10.2060 ha         1 ZHR       0.127000
@<TRIPOS>BOND
     1     1     2 1   
     2     1    27 1   
     3     1    28 1   
     4     1    29 1   
     5     2     3 2   
     6     2     4 1   
     7     4     5 1   
     8     4    30 1   
     9     5     6 1   
    10     5    14 1   
    11     5    31 1   
    12     6     7 1   
    13     6     8 1   
    14     6    32 1   
    15     7    33 1   
    16     8     9 1   
    17     8    10 1   
    18     8    34 1   
    19     9    35 1   
    20    10    11 1   
    21    10    13 1   
    22    10    36 1   
    23    11    12 1   
    24    11    37 1   
    25    11    38 1   
    26    12    39 1   
    27    13    14 1   
    28    14    15 1   
    29    14    40 1   
    30    15    16 1   
    31    16    17 1   
    32    16    41 1   
    33    16    42 1   
    34    17    18 1   
    35    17    43 1   
    36    17    44 1   
    37    18    19 ar  
    38    18    26 ar  
    39    19    20 ar  
    40    19    45 1   
    41    20    21 ar  
    42    20    46 1   
    43    21    22 1   
    44    21    25 ar  
    45    22    23 1   
    46    23    24 2   
    47    23    47 1   
    48    24    25 1   
    49    24    48 1   
    50    25    26 ar  
    51    26    49 1   
@<TRIPOS>SUBSTRUCTURE
     1 ZHR         1 TEMP              0 ****  ****    0 ROOT
