@<TRIPOS>MOLECULE
ZHR
   49    51     1     0     0
SMALL
abcg2


@<TRIPOS>ATOM
      1 C1         -28.5070   -62.5520   -13.8210 c3         1 ZHR      -0.175100
      2 C2         -29.5920   -63.5130   -14.2400 c          1 ZHR       0.604100
      3 O1         -29.4770   -64.7270   -14.0740 o          1 ZHR      -0.593100
      4 N1         -30.6660   -62.9530   -14.8450 ns         1 ZHR      -0.510900
      5 C3         -31.8000   -63.7030   -15.3420 c6         1 ZHR       0.044700
      6 C4         -32.0550   -63.3460   -16.8110 c6         1 ZHR       0.162300
      7 O2         -30.9640   -63.7560   -17.6260 oh         1 ZHR      -0.645000
      8 C5         -33.3190   -64.0020   -17.3460 c6         1 ZHR       0.147300
      9 O3         -33.6010   -63.4250   -18.6200 oh         1 ZHR      -0.711000
     10 C6         -34.4910   -63.7670   -16.3790 c6         1 ZHR       0.149300
     11 C7         -35.7300   -64.5250   -16.7940 c3         1 ZHR       0.168600
     12 O4         -36.8310   -64.0700   -16.0090 oh         1 ZHR      -0.716000
     13 O5         -34.1360   -64.2010   -15.0670 os         1 ZHR      -0.474000
     14 C8         -33.0580   -63.4600   -14.5090 c6         1 ZHR       0.380300
     15 O6         -32.8350   -63.9190   -13.2230 os         1 ZHR      -0.427000
     16 C9         -33.7180   -63.4050   -12.2140 c3         1 ZHR       0.158600
     17 C10        -33.4670   -61.9390   -11.8770 c3         1 ZHR      -0.063100
     18 C11        -32.0360   -61.5860   -11.5350 ca         1 ZHR      -0.093300
     19 C12        -31.5340   -60.3360   -11.9430 ca         1 ZHR      -0.101000
     20 C13        -30.2370   -59.9230   -11.6590 ca         1 ZHR      -0.110000
     21 C14        -29.4500   -60.8140   -10.9530 ca         1 ZHR       0.051100
     22 O7         -28.1370   -60.6440   -10.5960 os         1 ZHR      -0.190200
     23 C15        -27.7640   -61.8000    -9.9460 cc         1 ZHR      -0.071900
     24 C16        -28.7790   -62.6890    -9.8740 cd         1 ZHR      -0.225200
     25 C17        -29.9040   -62.0710   -10.5310 ca         1 ZHR      -0.107800
     26 C18        -31.2150   -62.4560   -10.8250 ca         1 ZHR      -0.041000
     27 H1         -28.0980   -62.8710   -12.8640 hc         1 ZHR       0.062700
     28 H2         -27.7070   -62.5930   -14.5630 hc         1 ZHR       0.062700
     29 H3         -28.8590   -61.5250   -13.7430 hc         1 ZHR       0.062700
     30 H4         -30.7190   -61.9460   -14.8820 hn         1 ZHR       0.307500
     31 H5         -31.5510   -64.7610   -15.2650 h1         1 ZHR       0.121700
     32 H6         -32.1900   -62.2580   -16.8880 h1         1 ZHR       0.039700
     33 H7         -30.1710   -63.3040   -17.3090 ho         1 ZHR       0.451000
     34 H8         -33.1420   -65.0780   -17.4430 h1         1 ZHR       0.063700
     35 H9         -33.9850   -64.0990   -19.1920 ho         1 ZHR       0.508000
     36 H10        -34.7170   -62.6920   -16.3650 h1         1 ZHR       0.060700
     37 H11        -35.9170   -64.3490   -17.8570 h1         1 ZHR       0.033200
     38 H12        -35.5580   -65.5970   -16.6420 h1         1 ZHR       0.033200
     39 H13        -37.6150   -64.5670   -16.2730 ho         1 ZHR       0.505000
     40 H14        -33.3200   -62.3930   -14.5200 h2         1 ZHR       0.023700
     41 H15        -34.7570   -63.5400   -12.5240 h1         1 ZHR       0.061700
     42 H16        -33.5430   -64.0390   -11.3470 h1         1 ZHR       0.061700
     43 H17        -33.7970   -61.3050   -12.7010 hc         1 ZHR       0.052700
     44 H18        -34.1250   -61.6950   -11.0350 hc         1 ZHR       0.052700
     45 H19        -32.1810   -59.6750   -12.5070 ha         1 ZHR       0.111000
     46 H20        -29.8590   -58.9650   -11.9880 ha         1 ZHR       0.130000
     47 H21        -26.7450   -61.8240    -9.5990 h4         1 ZHR       0.239000
     48 H22        -28.7380   -63.6640    -9.4190 ha         1 ZHR       0.218000
     49 H23        -31.5730   -63.4280   -10.5130 ha         1 ZHR       0.127000
@<TRIPOS>BOND
     1     1     2 1   
     2     1    27 1   
     3     1    28 1   
     4     1    29 1   
     5     2     3 2   
     6     2     4 1   
     7     4     5 1   
     8     4    30 1   
     9     5     6 1   
    10     5    14 1   
    11     5    31 1   
    12     6     7 1   
    13     6     8 1   
    14     6    32 1   
    15     7    33 1   
    16     8     9 1   
    17     8    10 1   
    18     8    34 1   
    19     9    35 1   
    20    10    11 1   
    21    10    13 1   
    22    10    36 1   
    23    11    12 1   
    24    11    37 1   
    25    11    38 1   
    26    12    39 1   
    27    13    14 1   
    28    14    15 1   
    29    14    40 1   
    30    15    16 1   
    31    16    17 1   
    32    16    41 1   
    33    16    42 1   
    34    17    18 1   
    35    17    43 1   
    36    17    44 1   
    37    18    19 ar  
    38    18    26 ar  
    39    19    20 ar  
    40    19    45 1   
    41    20    21 ar  
    42    20    46 1   
    43    21    22 1   
    44    21    25 ar  
    45    22    23 1   
    46    23    24 2   
    47    23    47 1   
    48    24    25 1   
    49    24    48 1   
    50    25    26 ar  
    51    26    49 1   
@<TRIPOS>SUBSTRUCTURE
     1 ZHR         1 TEMP              0 ****  ****    0 ROOT
