@<TRIPOS>MOLECULE
ZHS
   66    69     1     0     0
SMALL
bcc


@<TRIPOS>ATOM
      1 C10         32.2400    12.6800    -6.4120 c3         1 ZHS       0.169800
      2 C12         34.4570    13.5520    -6.7710 c3         1 ZHS       0.152100
      3 C13         32.6790    14.1230    -8.2550 c3         1 ZHS       0.152100
      4 C14         32.6300    13.1020    -2.6830 c6         1 ZHS       0.167300
      5 C15         32.7110    14.3000    -1.7500 c6         1 ZHS      -0.086400
      6 N17         32.2920    18.0130    -0.1310 nc         1 ZHS      -0.369000
      7 C18         29.2270    16.0910     0.2040 ca         1 ZHS       0.530800
      8 C19         28.7500    15.9690     1.4990 ca         1 ZHS      -0.257300
      9 C21         26.7240    15.0710     0.5820 ca         1 ZHS      -0.258300
     10 C22         27.3110    15.2320    -0.6760 ca         1 ZHS       0.655600
     11 C24         27.0260    15.1250    -3.0170 ca         1 ZHS       0.118100
     12 C25         27.3800    14.0550    -3.8170 ca         1 ZHS      -0.134000
     13 C28         27.8180    15.5890    -5.6040 ca         1 ZHS      -0.130000
     14 C29         27.4570    16.6690    -4.8000 ca         1 ZHS      -0.062300
     15 C31         27.0550    16.4270    -3.4920 ca         1 ZHS      -0.134000
     16 C20         27.4720    15.4460     1.6770 ca         1 ZHS      -0.067000
     17 C02         31.1070    17.8270     0.4820 cc         1 ZHS       0.292600
     18 C03         30.5350    16.6900    -0.0530 cd         1 ZHS      -0.274100
     19 C05         31.4110    15.0890    -1.8290 c6         1 ZHS       0.068000
     20 C06         31.1140    15.4700    -3.2720 c6         1 ZHS      -0.086400
     21 C07         31.1170    14.2270    -4.1480 c6         1 ZHS       0.167300
     22 C09         32.4280    12.3600    -4.9350 c3         1 ZHS       0.173800
     23 C26         27.7760    14.2820    -5.1340 ca         1 ZHS      -0.062300
     24 C30         27.4760    18.0700    -5.3390 c3         1 ZHS      -0.048300
     25 N04         31.4430    16.2620    -0.9610 na         1 ZHS       0.139400
     26 N08         32.3710    13.5070    -4.0510 n3         1 ZHS      -0.700600
     27 N11         33.0360    13.7890    -6.8950 n3         1 ZHS      -0.700600
     28 N16         32.4830    17.0680    -0.9890 nd         1 ZHS      -0.194800
     29 N32         28.5130    15.7170    -0.8620 nb         1 ZHS      -0.745000
     30 O23         26.5750    14.8580    -1.7410 os         1 ZHS      -0.372400
     31 H101        31.1900    12.9120    -6.6080 h1         1 ZHS       0.026200
     32 H102        32.4500    11.7500    -6.9700 h1         1 ZHS       0.026200
     33 H123        34.7420    13.4310    -5.7260 h1         1 ZHS       0.029700
     34 H121        34.7980    12.6610    -7.3220 h1         1 ZHS       0.029700
     35 H122        35.0080    14.4110    -7.1590 h1         1 ZHS       0.029700
     36 H131        31.6160    14.3630    -8.3150 h1         1 ZHS       0.029700
     37 H132        33.2370    15.0010    -8.5840 h1         1 ZHS       0.029700
     38 H133        32.8800    13.3120    -8.9740 h1         1 ZHS       0.029700
     39 H141        31.8550    12.4050    -2.3140 h1         1 ZHS       0.033700
     40 H142        33.5770    12.5580    -2.6500 h1         1 ZHS       0.033700
     41 H151        32.8880    13.9570    -0.7280 hc         1 ZHS       0.069700
     42 H152        33.5540    14.9290    -2.0410 hc         1 ZHS       0.069700
     43 H191        29.3570    16.2580     2.3450 ha         1 ZHS       0.155000
     44 H211        25.7260    14.6680     0.6820 ha         1 ZHS       0.160000
     45 H251        27.3510    13.0480    -3.4180 ha         1 ZHS       0.143500
     46 H273        28.8090    12.4300    -5.5050 hc         1 ZHS       0.044533
     47 H271        27.2640    12.5680    -6.3280 hc         1 ZHS       0.044533
     48 H272        28.6560    13.4670    -6.9220 hc         1 ZHS       0.044533
     49 H281        28.1380    15.7740    -6.6240 ha         1 ZHS       0.132000
     50 H311        26.7710    17.2490    -2.8460 ha         1 ZHS       0.143500
     51 H201        27.0650    15.3340     2.6730 ha         1 ZHS       0.143000
     52 H051        30.6000    14.4610    -1.4590 h1         1 ZHS       0.071700
     53 H062        31.8700    16.1740    -3.6300 hc         1 ZHS       0.069700
     54 H061        30.1400    15.9580    -3.3400 hc         1 ZHS       0.069700
     55 H072        30.9490    14.5360    -5.1810 h1         1 ZHS       0.033700
     56 H071        30.2640    13.5840    -3.8680 h1         1 ZHS       0.033700
     57 H092        31.6640    11.6040    -4.6750 h1         1 ZHS       0.027200
     58 H091        33.3940    11.8710    -4.7820 h1         1 ZHS       0.027200
     59 H303        26.4840    18.3670    -5.6860 hc         1 ZHS       0.044533
     60 H302        27.7790    18.7880    -4.5770 hc         1 ZHS       0.044533
     61 H301        28.1570    18.1640    -6.1840 hc         1 ZHS       0.044533
     62 C01         30.5820    18.7560     1.5180 c3         1 ZHS      -0.111400
     63 C27         28.1480    13.1290    -6.0190 c3         1 ZHS      -0.048300
     64 H011        31.0470    19.7350     1.4180 hc         1 ZHS       0.047700
     65 H013        29.5030    18.8800     1.4310 hc         1 ZHS       0.047700
     66 H012        30.7890    18.3950     2.5270 hc         1 ZHS       0.047700
@<TRIPOS>BOND
     1     1    22 1   
     2     1    27 1   
     3     1    31 1   
     4     1    32 1   
     5     2    27 1   
     6     2    33 1   
     7     2    34 1   
     8     2    35 1   
     9     3    27 1   
    10     3    36 1   
    11     3    37 1   
    12     3    38 1   
    13     4     5 1   
    14     4    26 1   
    15     4    39 1   
    16     4    40 1   
    17     5    19 1   
    18     5    41 1   
    19     5    42 1   
    20     6    17 1   
    21     6    28 2   
    22     7     8 ar  
    23     7    18 1   
    24     7    29 ar  
    25     8    16 ar  
    26     8    43 1   
    27     9    10 ar  
    28     9    16 ar  
    29     9    44 1   
    30    10    29 ar  
    31    10    30 1   
    32    11    12 ar  
    33    11    15 ar  
    34    11    30 1   
    35    12    23 ar  
    36    12    45 1   
    37    13    14 ar  
    38    13    23 ar  
    39    13    49 1   
    40    14    15 ar  
    41    14    24 1   
    42    15    50 1   
    43    16    51 1   
    44    17    18 2   
    45    17    62 1   
    46    18    25 1   
    47    19    20 1   
    48    19    25 1   
    49    19    52 1   
    50    20    21 1   
    51    20    53 1   
    52    20    54 1   
    53    21    26 1   
    54    21    55 1   
    55    21    56 1   
    56    22    26 1   
    57    22    57 1   
    58    22    58 1   
    59    23    63 1   
    60    24    59 1   
    61    24    60 1   
    62    24    61 1   
    63    25    28 1   
    64    46    63 1   
    65    47    63 1   
    66    48    63 1   
    67    62    64 1   
    68    62    65 1   
    69    62    66 1   
@<TRIPOS>SUBSTRUCTURE
     1 ZHS         1 TEMP              0 ****  ****    0 ROOT
