@<TRIPOS>MOLECULE
ZHS
   66    69     1     0     0
SMALL
No Charge or Current Charge


@<TRIPOS>ATOM
      1 C10         31.9410    13.0570    -6.5530 c3         1 ZHS       0.169800
      2 C12         34.2730    13.6730    -7.1610 c3         1 ZHS       0.152100
      3 C13         32.3850    14.5330    -8.4780 c3         1 ZHS       0.152100
      4 C14         32.6450    13.1840    -2.7080 c6         1 ZHS       0.167300
      5 C15         32.7950    14.3180    -1.6670 c6         1 ZHS      -0.086400
      6 N17         32.4680    17.8620     0.5220 nc         1 ZHS      -0.369000
      7 C18         29.1440    16.2480     0.3620 ca         1 ZHS       0.465500
      8 C19         28.3610    16.4780     1.5140 ca         1 ZHS      -0.174000
      9 C21         26.5080    15.4240     0.4120 ca         1 ZHS      -0.175000
     10 C22         27.3340    15.2370    -0.7030 ca         1 ZHS       0.590300
     11 C24         27.2530    14.7300    -3.0750 ca         1 ZHS       0.118100
     12 C25         27.4170    13.5920    -3.8810 ca         1 ZHS      -0.116000
     13 C28         28.1060    15.0010    -5.7380 ca         1 ZHS      -0.112000
     14 C29         27.9330    16.1490    -4.9410 ca         1 ZHS      -0.062300
     15 C31         27.4940    16.0100    -3.6100 ca         1 ZHS      -0.116000
     16 C20         27.0230    16.0590     1.5470 ca         1 ZHS      -0.049000
     17 C02         31.1780    17.7210     0.9380 cc         1 ZHS       0.227300
     18 C03         30.5510    16.7060     0.2600 cd         1 ZHS      -0.259500
     19 C05         31.4890    15.1520    -1.5930 c6         1 ZHS       0.097300
     20 C06         31.1530    15.6910    -3.0010 c6         1 ZHS      -0.086400
     21 C07         31.0360    14.5270    -4.0040 c6         1 ZHS       0.167300
     22 C09         32.2280    12.6270    -5.0760 c3         1 ZHS       0.173800
     23 C26         27.8480    13.7190    -5.2140 ca         1 ZHS      -0.062300
     24 C30         28.2200    17.5280    -5.5130 c3         1 ZHS      -0.048300
     25 N04         31.5550    16.2640    -0.6020 na         1 ZHS       0.160800
     26 N08         32.2820    13.7120    -4.0520 n3         1 ZHS      -0.700600
     27 N11         32.8490    14.0800    -7.1490 n3         1 ZHS      -0.700600
     28 N16         32.7070    16.9840    -0.4100 nd         1 ZHS      -0.194800
     29 N32         28.6240    15.6370    -0.7240 nb         1 ZHS      -0.745000
     30 O23         26.8040    14.5700    -1.7840 os         1 ZHS      -0.372400
     31 H101        30.9080    13.4250    -6.5970 h1         1 ZHS       0.026200
     32 H102        31.9660    12.1490    -7.1710 h1         1 ZHS       0.026200
     33 H123        34.6360    13.4770    -6.1430 h1         1 ZHS       0.029700
     34 H121        34.4160    12.7640    -7.7600 h1         1 ZHS       0.029700
     35 H122        34.8990    14.4670    -7.5880 h1         1 ZHS       0.029700
     36 H131        31.3550    14.9110    -8.4210 h1         1 ZHS       0.029700
     37 H132        33.0210    15.3450    -8.8560 h1         1 ZHS       0.029700
     38 H133        32.4110    13.7090    -9.2040 h1         1 ZHS       0.029700
     39 H141        31.8770    12.4770    -2.3590 h1         1 ZHS       0.033700
     40 H142        33.5930    12.6280    -2.7610 h1         1 ZHS       0.033700
     41 H151        33.0270    13.8890    -0.6830 hc         1 ZHS       0.069700
     42 H152        33.6460    14.9520    -1.9500 hc         1 ZHS       0.069700
     43 H191        28.7840    16.9370     2.3980 ha         1 ZHS       0.137000
     44 H211        25.4810    15.0710     0.3880 ha         1 ZHS       0.142000
     45 H251        27.2140    12.6080    -3.4650 ha         1 ZHS       0.125500
     46 H273        28.8520    11.8510    -5.6640 hc         1 ZHS       0.044533
     47 H271        27.1350    11.8720    -6.1000 hc         1 ZHS       0.044533
     48 H272        28.3130    12.7320    -7.1020 hc         1 ZHS       0.044533
     49 H281        28.4450    15.1070    -6.7660 ha         1 ZHS       0.114000
     50 H311        27.3470    16.8920    -2.9930 ha         1 ZHS       0.125500
     51 H201        26.4080    16.2130     2.4320 ha         1 ZHS       0.125000
     52 H051        30.7000    14.4570    -1.2810 h1         1 ZHS       0.071700
     53 H062        31.9300    16.3900    -3.3360 hc         1 ZHS       0.069700
     54 H061        30.2130    16.2570    -2.9780 hc         1 ZHS       0.069700
     55 H072        30.8140    14.9550    -4.9920 h1         1 ZHS       0.033700
     56 H071        30.1840    13.8940    -3.7200 h1         1 ZHS       0.033700
     57 H092        31.4520    11.9030    -4.7900 h1         1 ZHS       0.027200
     58 H091        33.1780    12.0780    -5.0660 h1         1 ZHS       0.027200
     59 H303        27.3300    17.9410    -6.0010 hc         1 ZHS       0.044533
     60 H302        28.5300    18.2290    -4.7290 hc         1 ZHS       0.044533
     61 H301        29.0260    17.4910    -6.2560 hc         1 ZHS       0.044533
     62 C01         30.6440    18.6880     1.9630 c3         1 ZHS      -0.111400
     63 C27         28.0480    12.4780    -6.0690 c3         1 ZHS      -0.048300
     64 H011        31.2780    19.5800     2.0320 hc         1 ZHS       0.047700
     65 H013        29.6360    19.0280     1.6990 hc         1 ZHS       0.047700
     66 H012        30.6150    18.2280     2.9570 hc         1 ZHS       0.047700
@<TRIPOS>BOND
     1     1    22 1   
     2     1    27 1   
     3     1    31 1   
     4     1    32 1   
     5     2    27 1   
     6     2    33 1   
     7     2    34 1   
     8     2    35 1   
     9     3    27 1   
    10     3    36 1   
    11     3    37 1   
    12     3    38 1   
    13     4     5 1   
    14     4    26 1   
    15     4    39 1   
    16     4    40 1   
    17     5    19 1   
    18     5    41 1   
    19     5    42 1   
    20     6    17 1   
    21     6    28 2   
    22     7     8 ar  
    23     7    18 1   
    24     7    29 ar  
    25     8    16 ar  
    26     8    43 1   
    27     9    10 ar  
    28     9    16 ar  
    29     9    44 1   
    30    10    29 ar  
    31    10    30 1   
    32    11    12 ar  
    33    11    15 ar  
    34    11    30 1   
    35    12    23 ar  
    36    12    45 1   
    37    13    14 ar  
    38    13    23 ar  
    39    13    49 1   
    40    14    15 ar  
    41    14    24 1   
    42    15    50 1   
    43    16    51 1   
    44    17    18 2   
    45    17    62 1   
    46    18    25 1   
    47    19    20 1   
    48    19    25 1   
    49    19    52 1   
    50    20    21 1   
    51    20    53 1   
    52    20    54 1   
    53    21    26 1   
    54    21    55 1   
    55    21    56 1   
    56    22    26 1   
    57    22    57 1   
    58    22    58 1   
    59    23    63 1   
    60    24    59 1   
    61    24    60 1   
    62    24    61 1   
    63    25    28 1   
    64    46    63 1   
    65    47    63 1   
    66    48    63 1   
    67    62    64 1   
    68    62    65 1   
    69    62    66 1   
@<TRIPOS>SUBSTRUCTURE
     1 ZHS         1 TEMP              0 ****  ****    0 ROOT
