@<TRIPOS>MOLECULE
ZHT
   69    71     1     0     0
SMALL
No Charge or Current Charge


@<TRIPOS>ATOM
      1 C1          -3.5070   -27.3200    11.3110 c3         1 ZHT       0.155100
      2 O1           5.5530   -23.0820    19.4410 o          1 ZHT      -0.688000
      3 C2          -2.7090   -25.9740    13.2070 c3         1 ZHT       0.160800
      4 C21         -1.1590   -28.1030    17.8210 ca         1 ZHT      -0.122500
      5 C3          -3.0460   -24.9890    14.3490 c3         1 ZHT      -0.121400
      6 O3           3.2340   -26.1950    18.5280 o          1 ZHT      -0.688000
      7 C4          -1.9180   -24.9200    15.4050 c3         1 ZHT       0.211800
      8 N4           3.4920   -22.3790    17.6160 nb         1 ZHT      -0.598500
      9 C5          -3.2900   -24.4450    17.4400 c3         1 ZHT       0.228800
     10 C6          -3.3050   -23.8510    18.8900 c3         1 ZHT       0.196800
     11 C7          -1.0770   -22.7060    19.4670 c3         1 ZHT       0.204800
     12 C8           0.0410   -22.8340    18.3750 c3         1 ZHT       0.204800
     13 C9          -0.6880   -21.9860    16.1070 c3         1 ZHT       0.196800
     14 C10         -2.1320   -22.5560    16.2610 c3         1 ZHT       0.228800
     15 C11          1.4170   -21.1120    17.1580 c3         1 ZHT       0.167000
     16 C12          2.5520   -22.0540    16.6940 ca         1 ZHT       0.302800
     17 N           -3.8080   -26.2030    12.2330 n3         1 ZHT      -0.717600
     18 C           -4.2250   -24.9840    11.5010 c3         1 ZHT       0.155100
     19 O            6.5950   -24.2200    17.9510 o          1 ZHT      -0.688000
     20 C13          2.6330   -22.4960    15.3580 ca         1 ZHT      -0.216500
     21 C14          3.6880   -23.3300    14.9700 ca         1 ZHT      -0.122500
     22 C15          4.6470   -23.6800    15.9320 ca         1 ZHT      -0.154000
     23 C16          4.5380   -23.1890    17.2570 ca         1 ZHT       0.307000
     24 C17          5.6350   -23.5380    18.3020 c          1 ZHT       0.604500
     25 C18         -1.5010   -25.1230    20.2330 c3         1 ZHT       0.167000
     26 C19         -0.9060   -26.1480    19.2400 ca         1 ZHT       0.302800
     27 C20         -1.7160   -27.1640    18.6960 ca         1 ZHT      -0.216500
     28 C22          0.2120   -28.0130    17.5400 ca         1 ZHT      -0.154000
     29 C23          0.9980   -27.0040    18.1510 ca         1 ZHT       0.307000
     30 C24          2.5250   -26.9490    17.8690 c          1 ZHT       0.604500
     31 N1          -2.1800   -24.0170    16.5570 n3         1 ZHT      -0.769600
     32 N2          -2.0440   -23.8260    19.7110 n3         1 ZHT      -0.762600
     33 N3           0.0650   -21.7150    17.3740 n3         1 ZHT      -0.762600
     34 N5           0.4290   -26.0940    19.0030 nb         1 ZHT      -0.598500
     35 O2           2.9950   -27.6870    17.0080 o          1 ZHT      -0.688000
     36 H11         -3.2850   -28.2370    11.8730 h1         1 ZHT       0.021200
     37 H12         -4.3650   -27.5250    10.6570 h1         1 ZHT       0.021200
     38 H13         -2.6410   -27.0830    10.6790 h1         1 ZHT       0.021200
     39 H23         -2.4380   -26.9330    13.6700 h1         1 ZHT       0.040700
     40 H22         -1.8140   -25.6100    12.6830 h1         1 ZHT       0.040700
     41 H211        -1.7700   -28.8850    17.3760 ha         1 ZHT       0.073500
     42 H31         -3.2140   -23.9900    13.9330 hc         1 ZHT       0.029700
     43 H32         -3.9790   -25.3080    14.8280 hc         1 ZHT       0.029700
     44 H42         -1.7430   -25.9380    15.7810 h1         1 ZHT       0.068700
     45 H41         -0.9900   -24.6240    14.8980 h1         1 ZHT       0.068700
     46 H52         -4.2470   -24.1910    16.9660 h1         1 ZHT       0.006200
     47 H51         -3.2810   -25.5360    17.5230 h1         1 ZHT       0.006200
     48 H61         -3.6890   -22.8250    18.8150 h1         1 ZHT       0.041950
     49 H62         -4.0720   -24.4060    19.4470 h1         1 ZHT       0.041950
     50 H72         -0.5580   -22.4980    20.4120 h1         1 ZHT       0.028200
     51 H71         -1.6490   -21.7920    19.2540 h1         1 ZHT       0.028200
     52 H81         -0.0270   -23.7990    17.8620 h1         1 ZHT       0.028200
     53 H82          0.9940   -22.8610    18.9200 h1         1 ZHT       0.028200
     54 H92         -0.1210   -22.6770    15.4720 h1         1 ZHT       0.041950
     55 H91         -0.7730   -21.0460    15.5440 h1         1 ZHT       0.041950
     56 H101        -2.6320   -21.9790    17.0480 h1         1 ZHT       0.006200
     57 H102        -2.6860   -22.3490    15.3370 h1         1 ZHT       0.006200
     58 H111         1.3360   -20.2970    16.4260 h1         1 ZHT       0.023200
     59 H112         1.7350   -20.6360    18.0960 h1         1 ZHT       0.023200
     60 H3          -4.6070   -24.2180    12.1880 h1         1 ZHT       0.021200
     61 H2          -3.3830   -24.5590    10.9380 h1         1 ZHT       0.021200
     62 H1          -5.0300   -25.2170    10.7900 h1         1 ZHT       0.021200
     63 H131         1.8880   -22.1880    14.6300 ha         1 ZHT       0.077000
     64 H141         3.7690   -23.6880    13.9460 ha         1 ZHT       0.073500
     65 H151         5.4790   -24.3190    15.6520 ha         1 ZHT       0.127500
     66 H182        -0.7340   -24.9030    20.9880 h1         1 ZHT       0.023200
     67 H181        -2.3050   -25.6350    20.7780 h1         1 ZHT       0.023200
     68 H201        -2.7720   -27.2160    18.9490 ha         1 ZHT       0.077000
     69 H221         0.6700   -28.7340    16.8690 ha         1 ZHT       0.127500
@<TRIPOS>BOND
     1     1    17 1   
     2     1    36 1   
     3     1    37 1   
     4     1    38 1   
     5     2    24 1   
     6     3     5 1   
     7     3    17 1   
     8     3    39 1   
     9     3    40 1   
    10     4    27 ar  
    11     4    28 ar  
    12     4    41 1   
    13     5     7 1   
    14     5    42 1   
    15     5    43 1   
    16     6    30 1   
    17     7    31 1   
    18     7    44 1   
    19     7    45 1   
    20     8    16 ar  
    21     8    23 ar  
    22     9    10 1   
    23     9    31 1   
    24     9    46 1   
    25     9    47 1   
    26    10    32 1   
    27    10    48 1   
    28    10    49 1   
    29    11    12 1   
    30    11    32 1   
    31    11    50 1   
    32    11    51 1   
    33    12    33 1   
    34    12    52 1   
    35    12    53 1   
    36    13    14 1   
    37    13    33 1   
    38    13    54 1   
    39    13    55 1   
    40    14    31 1   
    41    14    56 1   
    42    14    57 1   
    43    15    16 1   
    44    15    33 1   
    45    15    58 1   
    46    15    59 1   
    47    16    20 ar  
    48    17    18 1   
    49    18    60 1   
    50    18    61 1   
    51    18    62 1   
    52    19    24 1   
    53    20    21 ar  
    54    20    63 1   
    55    21    22 ar  
    56    21    64 1   
    57    22    23 ar  
    58    22    65 1   
    59    23    24 1   
    60    25    26 1   
    61    25    32 1   
    62    25    66 1   
    63    25    67 1   
    64    26    27 ar  
    65    26    34 ar  
    66    27    68 1   
    67    28    29 ar  
    68    28    69 1   
    69    29    30 1   
    70    29    34 ar  
    71    30    35 1   
@<TRIPOS>SUBSTRUCTURE
     1 ZHT         1 TEMP              0 ****  ****    0 ROOT
