@<TRIPOS>MOLECULE
ZHT
   69    71     1     0     0
SMALL
abcg2


@<TRIPOS>ATOM
      1 C1          -3.8470   -27.3470    11.1480 c3         1 ZHT       0.155100
      2 O1           3.7690   -24.8930    18.1160 o          1 ZHT      -0.688000
      3 C2          -2.8820   -26.1950    12.9990 c3         1 ZHT       0.160800
      4 C21         -1.8460   -28.4340    19.4420 ca         1 ZHT      -0.122500
      5 C3          -3.0820   -25.2730    14.1930 c3         1 ZHT      -0.121400
      6 O3           1.4500   -27.0370    16.3200 o          1 ZHT      -0.688000
      7 C4          -1.9230   -25.4160    15.1870 c3         1 ZHT       0.211800
      8 N4           3.0530   -22.5040    17.0390 nb         1 ZHT      -0.598500
      9 C5          -2.9460   -24.7570    17.3000 c3         1 ZHT       0.228800
     10 C6          -2.7510   -23.9410    18.5850 c3         1 ZHT       0.196800
     11 C7          -0.8980   -22.4780    19.3190 c3         1 ZHT       0.204800
     12 C8           0.4240   -22.1320    18.6390 c3         1 ZHT       0.204800
     13 C9           0.0240   -22.9700    16.3570 c3         1 ZHT       0.196800
     14 C10         -1.4830   -23.1700    16.0590 c3         1 ZHT       0.228800
     15 C11          1.2490   -20.8860    16.7080 c3         1 ZHT       0.167000
     16 C12          2.6940   -21.3280    16.5500 ca         1 ZHT       0.302800
     17 N           -4.0360   -26.2960    12.1240 n3         1 ZHT      -0.717600
     18 C           -4.3460   -25.0440    11.4690 c3         1 ZHT       0.155100
     19 O            5.8590   -24.6450    17.3670 o          1 ZHT      -0.688000
     20 C13          3.6030   -20.4880    15.9060 ca         1 ZHT      -0.216500
     21 C14          4.9150   -20.9060    15.7800 ca         1 ZHT      -0.122500
     22 C15          5.2810   -22.1410    16.2970 ca         1 ZHT      -0.154000
     23 C16          4.3150   -22.9170    16.9270 ca         1 ZHT       0.307000
     24 C17          4.6770   -24.2830    17.5270 c          1 ZHT       0.604500
     25 C18         -0.9520   -24.8000    19.9930 c3         1 ZHT       0.167000
     26 C19         -0.9690   -26.2130    19.4650 ca         1 ZHT       0.302800
     27 C20         -1.8650   -27.1500    19.9660 ca         1 ZHT      -0.216500
     28 C22         -0.9390   -28.7350    18.4420 ca         1 ZHT      -0.154000
     29 C23         -0.0780   -27.7350    17.9900 ca         1 ZHT       0.307000
     30 C24          0.9090   -28.0200    16.8520 c          1 ZHT       0.604500
     31 N1          -1.9310   -24.5190    16.3080 n3         1 ZHT      -0.769600
     32 N2          -1.3780   -23.8170    19.0230 n3         1 ZHT      -0.762600
     33 N3           0.3030   -21.8360    17.2230 n3         1 ZHT      -0.762600
     34 N5          -0.0950   -26.5130    18.5100 nb         1 ZHT      -0.598500
     35 O2           1.0610   -29.2230    16.5630 o          1 ZHT      -0.688000
     36 H11         -3.6700   -28.3000    11.6490 h1         1 ZHT       0.021200
     37 H12         -4.7430   -27.4560    10.5340 h1         1 ZHT       0.021200
     38 H13         -2.9990   -27.1650    10.4680 h1         1 ZHT       0.021200
     39 H23         -2.6650   -27.2010    13.3720 h1         1 ZHT       0.040700
     40 H22         -1.9820   -25.8740    12.4430 h1         1 ZHT       0.040700
     41 H211        -2.5320   -29.1870    19.8090 ha         1 ZHT       0.073500
     42 H31         -3.1510   -24.2310    13.8690 hc         1 ZHT       0.029700
     43 H32         -4.0290   -25.5190    14.6810 hc         1 ZHT       0.029700
     44 H42         -1.9120   -26.4460    15.5650 h1         1 ZHT       0.068700
     45 H41         -0.9780   -25.2890    14.6470 h1         1 ZHT       0.068700
     46 H52         -3.9750   -24.5520    16.9540 h1         1 ZHT       0.006200
     47 H51         -2.9230   -25.8260    17.5350 h1         1 ZHT       0.006200
     48 H61         -3.1530   -22.9380    18.4260 h1         1 ZHT       0.041950
     49 H62         -3.3940   -24.3840    19.3610 h1         1 ZHT       0.041950
     50 H72         -0.7720   -22.3370    20.4020 h1         1 ZHT       0.028200
     51 H71         -1.6450   -21.7440    19.0090 h1         1 ZHT       0.028200
     52 H81          1.1520   -22.9320    18.8340 h1         1 ZHT       0.028200
     53 H82          0.8120   -21.2350    19.1300 h1         1 ZHT       0.028200
     54 H92          0.4000   -23.9020    16.7910 h1         1 ZHT       0.041950
     55 H91          0.5640   -22.8290    15.4170 h1         1 ZHT       0.041950
     56 H101        -2.0480   -22.4600    16.6630 h1         1 ZHT       0.006200
     57 H102        -1.6900   -22.8750    15.0210 h1         1 ZHT       0.006200
     58 H111         0.8990   -20.5320    15.7320 h1         1 ZHT       0.023200
     59 H112         1.2380   -19.9970    17.3490 h1         1 ZHT       0.023200
     60 H3          -4.5880   -24.2720    12.1980 h1         1 ZHT       0.021200
     61 H2          -3.5180   -24.6680    10.8450 h1         1 ZHT       0.021200
     62 H1          -5.2160   -25.1690    10.8240 h1         1 ZHT       0.021200
     63 H131         3.2810   -19.5310    15.5120 ha         1 ZHT       0.077000
     64 H141         5.6460   -20.2790    15.2840 ha         1 ZHT       0.073500
     65 H151         6.2970   -22.4980    16.2150 ha         1 ZHT       0.127500
     66 H182         0.0750   -24.5660    20.2860 h1         1 ZHT       0.023200
     67 H181        -1.5580   -24.7580    20.9140 h1         1 ZHT       0.023200
     68 H201        -2.5670   -26.8740    20.7420 ha         1 ZHT       0.077000
     69 H221        -0.8950   -29.7230    18.0090 ha         1 ZHT       0.127500
@<TRIPOS>BOND
     1     1    17 1   
     2     1    36 1   
     3     1    37 1   
     4     1    38 1   
     5     2    24 1   
     6     3     5 1   
     7     3    17 1   
     8     3    39 1   
     9     3    40 1   
    10     4    27 ar  
    11     4    28 ar  
    12     4    41 1   
    13     5     7 1   
    14     5    42 1   
    15     5    43 1   
    16     6    30 1   
    17     7    31 1   
    18     7    44 1   
    19     7    45 1   
    20     8    16 ar  
    21     8    23 ar  
    22     9    10 1   
    23     9    31 1   
    24     9    46 1   
    25     9    47 1   
    26    10    32 1   
    27    10    48 1   
    28    10    49 1   
    29    11    12 1   
    30    11    32 1   
    31    11    50 1   
    32    11    51 1   
    33    12    33 1   
    34    12    52 1   
    35    12    53 1   
    36    13    14 1   
    37    13    33 1   
    38    13    54 1   
    39    13    55 1   
    40    14    31 1   
    41    14    56 1   
    42    14    57 1   
    43    15    16 1   
    44    15    33 1   
    45    15    58 1   
    46    15    59 1   
    47    16    20 ar  
    48    17    18 1   
    49    18    60 1   
    50    18    61 1   
    51    18    62 1   
    52    19    24 1   
    53    20    21 ar  
    54    20    63 1   
    55    21    22 ar  
    56    21    64 1   
    57    22    23 ar  
    58    22    65 1   
    59    23    24 1   
    60    25    26 1   
    61    25    32 1   
    62    25    66 1   
    63    25    67 1   
    64    26    27 ar  
    65    26    34 ar  
    66    27    68 1   
    67    28    29 ar  
    68    28    69 1   
    69    29    30 1   
    70    29    34 ar  
    71    30    35 1   
@<TRIPOS>SUBSTRUCTURE
     1 ZHT         1 TEMP              0 ****  ****    0 ROOT
