@<TRIPOS>MOLECULE
ZHV
   60    63     1     0     0
SMALL
bcc


@<TRIPOS>ATOM
      1 C28         27.7970    15.4660    -5.5690 ca         1 ZHV      -0.104000
      2 C30         27.3560    13.9330    -3.7700 ca         1 ZHV      -0.022900
      3 C01         30.6770    18.3200     1.6690 c3         1 ZHV      -0.112400
      4 C02         31.1470    17.3860     0.6130 cc         1 ZHV       0.295600
      5 C03         30.5020    16.3110     0.0350 cd         1 ZHV      -0.278100
      6 C05         31.2940    14.7010    -1.7790 c6         1 ZHV       0.068000
      7 C06         32.4960    13.7770    -1.6300 c6         1 ZHV      -0.085900
      8 C07         32.3780    12.6290    -2.6180 c6         1 ZHV       0.166800
      9 C10         32.3820    12.4390    -6.3870 c3         1 ZHV       0.170800
     10 C12         34.6890    13.1310    -6.3290 c3         1 ZHV       0.151600
     11 C13         33.2430    13.8930    -8.0640 c3         1 ZHV       0.151600
     12 C14         31.1180    13.9490    -4.1520 c6         1 ZHV       0.166800
     13 C15         31.1450    15.1530    -3.2250 c6         1 ZHV      -0.085900
     14 C18         29.1560    15.7940     0.2670 ca         1 ZHV       0.532800
     15 C19         28.6570    15.6820     1.5550 ca         1 ZHV      -0.252300
     16 C20         27.3520    15.2280     1.7170 ca         1 ZHV      -0.067000
     17 C21         26.5950    14.9050     0.6110 ca         1 ZHV      -0.249300
     18 C22         27.2050    15.0520    -0.6330 ca         1 ZHV       0.649600
     19 C24         26.9460    14.9880    -2.9660 ca         1 ZHV       0.140100
     20 C25         26.9680    16.2870    -3.4540 ca         1 ZHV      -0.101000
     21 C26         27.3960    16.5120    -4.7510 ca         1 ZHV      -0.001900
     22 C29         27.7680    14.1730    -5.0740 ca         1 ZHV      -0.098000
     23 N04         31.3890    15.8450    -0.8750 na         1 ZHV       0.138400
     24 N08         32.2930    13.1170    -3.9810 n3         1 ZHV      -0.699600
     25 N11         33.3340    13.4910    -6.6780 n3         1 ZHV      -0.699600
     26 N16         32.4860    16.5710    -0.8620 nd         1 ZHV      -0.191800
     27 N17         32.3520    17.5010     0.0220 nc         1 ZHV      -0.368000
     28 N32         28.4300    15.4740    -0.8100 nb         1 ZHV      -0.742000
     29 O23         26.4580    14.7340    -1.7190 os         1 ZHV      -0.360400
     30 BR27        27.4270    18.2760    -5.4120 br         1 ZHV      -0.075100
     31 BR31        27.3500    12.1860    -3.0860 br         1 ZHV      -0.067100
     32 H281        28.1260    15.6390    -6.5850 ha         1 ZHV       0.156000
     33 H011        31.1920    19.2760     1.5850 hc         1 ZHV       0.048700
     34 H013        29.6060    18.5020     1.5920 hc         1 ZHV       0.048700
     35 H012        30.8710    17.9300     2.6700 hc         1 ZHV       0.048700
     36 H051        30.3970    14.1550    -1.4860 h1         1 ZHV       0.074700
     37 H061        32.5470    13.3840    -0.6120 hc         1 ZHV       0.068700
     38 H062        33.4190    14.3270    -1.8230 hc         1 ZHV       0.068700
     39 H072        31.5050    12.0040    -2.3540 h1         1 ZHV       0.033950
     40 H071        33.2580    11.9880    -2.5280 h1         1 ZHV       0.033950
     41 H091        31.4680    11.3440    -4.8080 h1         1 ZHV       0.028700
     42 H092        33.2150    11.4120    -4.6890 h1         1 ZHV       0.028700
     43 H102        31.3950    12.7850    -6.7050 h1         1 ZHV       0.025700
     44 H101        32.5840    11.5260    -6.9750 h1         1 ZHV       0.025700
     45 H122        34.7800    12.9580    -5.2570 h1         1 ZHV       0.029867
     46 H123        35.0470    12.2290    -6.8520 h1         1 ZHV       0.029867
     47 H121        35.3640    13.9500    -6.5830 h1         1 ZHV       0.029867
     48 H133        32.2270    14.2190    -8.2950 h1         1 ZHV       0.029867
     49 H132        33.9140    14.7310    -8.2550 h1         1 ZHV       0.029867
     50 H131        33.5030    13.0890    -8.7720 h1         1 ZHV       0.029867
     51 H142        31.0700    14.3080    -5.1810 h1         1 ZHV       0.033950
     52 H141        30.1960    13.3700    -3.9730 h1         1 ZHV       0.033950
     53 H151        31.9810    15.8030    -3.4940 hc         1 ZHV       0.068700
     54 H152        30.2250    15.7310    -3.3450 hc         1 ZHV       0.068700
     55 H191        29.2710    15.9250     2.4100 ha         1 ZHV       0.157000
     56 H201        26.9310    15.1270     2.7080 ha         1 ZHV       0.146000
     57 H211        25.5760    14.5540     0.6960 ha         1 ZHV       0.163000
     58 H251        26.6420    17.0990    -2.8170 ha         1 ZHV       0.164000
     59 H291        28.0840    13.3560    -5.7080 ha         1 ZHV       0.152000
     60 C09         32.3360    12.0180    -4.9230 c3         1 ZHV       0.171800
@<TRIPOS>BOND
     1     1    21 ar  
     2     1    22 ar  
     3     1    32 1   
     4     2    19 ar  
     5     2    22 ar  
     6     2    31 1   
     7     3     4 1   
     8     3    33 1   
     9     3    34 1   
    10     3    35 1   
    11     4     5 2   
    12     4    27 1   
    13     5    14 1   
    14     5    23 1   
    15     6     7 1   
    16     6    13 1   
    17     6    23 1   
    18     6    36 1   
    19     7     8 1   
    20     7    37 1   
    21     7    38 1   
    22     8    24 1   
    23     8    39 1   
    24     8    40 1   
    25     9    25 1   
    26     9    43 1   
    27     9    44 1   
    28     9    60 1   
    29    10    25 1   
    30    10    45 1   
    31    10    46 1   
    32    10    47 1   
    33    11    25 1   
    34    11    48 1   
    35    11    49 1   
    36    11    50 1   
    37    12    13 1   
    38    12    24 1   
    39    12    51 1   
    40    12    52 1   
    41    13    53 1   
    42    13    54 1   
    43    14    15 ar  
    44    14    28 ar  
    45    15    16 ar  
    46    15    55 1   
    47    16    17 ar  
    48    16    56 1   
    49    17    18 ar  
    50    17    57 1   
    51    18    28 ar  
    52    18    29 1   
    53    19    20 ar  
    54    19    29 1   
    55    20    21 ar  
    56    20    58 1   
    57    21    30 1   
    58    22    59 1   
    59    23    26 1   
    60    24    60 1   
    61    26    27 2   
    62    41    60 1   
    63    42    60 1   
@<TRIPOS>SUBSTRUCTURE
     1 ZHV         1 TEMP              0 ****  ****    0 ROOT
