@<TRIPOS>MOLECULE
ZHV
   60    63     1     0     0
SMALL
No Charge or Current Charge


@<TRIPOS>ATOM
      1 C28         28.2990    14.8940    -5.7950 ca         1 ZHV      -0.086000
      2 C30         27.4650    13.4510    -4.0190 ca         1 ZHV      -0.022900
      3 C01         30.5830    18.2790     2.0680 c3         1 ZHV      -0.112400
      4 C02         31.1320    17.3040     1.0610 cc         1 ZHV       0.230300
      5 C03         30.5030    16.3180     0.3450 cd         1 ZHV      -0.263500
      6 C05         31.4670    14.7330    -1.4630 c6         1 ZHV       0.097300
      7 C06         32.7380    13.8440    -1.4670 c6         1 ZHV      -0.085900
      8 C07         32.5940    12.7120    -2.5100 c6         1 ZHV       0.166800
      9 C10         32.0820    12.5960    -6.3860 c3         1 ZHV       0.170800
     10 C12         34.4560    13.1650    -6.8620 c3         1 ZHV       0.151600
     11 C13         32.6640    14.0610    -8.2840 c3         1 ZHV       0.151600
     12 C14         31.1100    14.1140    -3.8920 c6         1 ZHV       0.166800
     13 C15         31.2270    15.2790    -2.8880 c6         1 ZHV      -0.085900
     14 C18         29.0790    15.9110     0.3770 ca         1 ZHV       0.467500
     15 C19         28.2590    16.1360     1.5030 ca         1 ZHV      -0.169000
     16 C20         26.9070    15.7660     1.4690 ca         1 ZHV      -0.049000
     17 C21         26.4150    15.1860     0.2940 ca         1 ZHV      -0.166000
     18 C22         27.2800    15.0040    -0.7930 ca         1 ZHV       0.584300
     19 C24         27.2970    14.5720    -3.1810 ca         1 ZHV       0.140100
     20 C25         27.6150    15.8570    -3.6620 ca         1 ZHV      -0.083000
     21 C26         28.1270    16.0120    -4.9620 ca         1 ZHV      -0.001900
     22 C29         27.9650    13.6120    -5.3240 ca         1 ZHV      -0.080000
     23 N04         31.5280    15.8450    -0.4720 na         1 ZHV       0.159800
     24 N08         32.3220    13.2480    -3.8730 n3         1 ZHV      -0.699600
     25 N11         33.0430    13.6000    -6.9310 n3         1 ZHV      -0.699600
     26 N16         32.6950    16.5210    -0.2220 nd         1 ZHV      -0.191800
     27 N17         32.4450    17.4020     0.7050 nc         1 ZHV      -0.368000
     28 N32         28.5820    15.3560    -0.7500 nb         1 ZHV      -0.742000
     29 O23         26.7690    14.4020    -1.9180 os         1 ZHV      -0.360400
     30 Br27        28.5970    17.7530    -5.5960 br         1 ZHV      -0.075100
     31 Br31        27.0390    11.6910    -3.3930 br         1 ZHV      -0.067100
     32 H281        28.6940    15.0180    -6.8010 ha         1 ZHV       0.138000
     33 H011        31.2370    19.1540     2.1680 hc         1 ZHV       0.048700
     34 H013        29.5960    18.6460     1.7660 hc         1 ZHV       0.048700
     35 H012        30.5010    17.8150     3.0580 hc         1 ZHV       0.048700
     36 H051        30.6340    14.0740    -1.1910 h1         1 ZHV       0.074700
     37 H061        32.9010    13.4110    -0.4700 hc         1 ZHV       0.068700
     38 H062        33.6290    14.4400    -1.7060 hc         1 ZHV       0.068700
     39 H072        31.7810    12.0390    -2.1980 h1         1 ZHV       0.033950
     40 H071        33.5200    12.1180    -2.5140 h1         1 ZHV       0.033950
     41 H091        31.4670    11.4650    -4.6480 h1         1 ZHV       0.028700
     42 H092        33.2090    11.5810    -4.8390 h1         1 ZHV       0.028700
     43 H102        31.0600    12.9870    -6.4850 h1         1 ZHV       0.025700
     44 H101        32.1210    11.6880    -7.0020 h1         1 ZHV       0.025700
     45 H122        34.7570    12.9630    -5.8250 h1         1 ZHV       0.029867
     46 H123        34.6150    12.2530    -7.4530 h1         1 ZHV       0.029867
     47 H121        35.1210    13.9470    -7.2520 h1         1 ZHV       0.029867
     48 H133        31.6400    14.4590    -8.2860 h1         1 ZHV       0.029867
     49 H132        33.3370    14.8590    -8.6250 h1         1 ZHV       0.029867
     50 H131        32.7130    13.2350    -9.0070 h1         1 ZHV       0.029867
     51 H142        30.9560    14.5450    -4.8910 h1         1 ZHV       0.033950
     52 H141        30.2190    13.5190    -3.6480 h1         1 ZHV       0.033950
     53 H151        32.0510    15.9400    -3.1860 hc         1 ZHV       0.068700
     54 H152        30.3140    15.8850    -2.9150 hc         1 ZHV       0.068700
     55 H191        28.6640    16.5540     2.4160 ha         1 ZHV       0.139000
     56 H201        26.2620    15.9170     2.3330 ha         1 ZHV       0.128000
     57 H211        25.3790    14.8740     0.2180 ha         1 ZHV       0.145000
     58 H251        27.4740    16.7290    -3.0300 ha         1 ZHV       0.146000
     59 H291        28.1000    12.7450    -5.9670 ha         1 ZHV       0.134000
     60 C09         32.2790    12.1620    -4.8950 c3         1 ZHV       0.171800
@<TRIPOS>BOND
     1     1    21 ar  
     2     1    22 ar  
     3     1    32 1   
     4     2    19 ar  
     5     2    22 ar  
     6     2    31 1   
     7     3     4 1   
     8     3    33 1   
     9     3    34 1   
    10     3    35 1   
    11     4     5 2   
    12     4    27 1   
    13     5    14 1   
    14     5    23 1   
    15     6     7 1   
    16     6    13 1   
    17     6    23 1   
    18     6    36 1   
    19     7     8 1   
    20     7    37 1   
    21     7    38 1   
    22     8    24 1   
    23     8    39 1   
    24     8    40 1   
    25     9    25 1   
    26     9    43 1   
    27     9    44 1   
    28     9    60 1   
    29    10    25 1   
    30    10    45 1   
    31    10    46 1   
    32    10    47 1   
    33    11    25 1   
    34    11    48 1   
    35    11    49 1   
    36    11    50 1   
    37    12    13 1   
    38    12    24 1   
    39    12    51 1   
    40    12    52 1   
    41    13    53 1   
    42    13    54 1   
    43    14    15 ar  
    44    14    28 ar  
    45    15    16 ar  
    46    15    55 1   
    47    16    17 ar  
    48    16    56 1   
    49    17    18 ar  
    50    17    57 1   
    51    18    28 ar  
    52    18    29 1   
    53    19    20 ar  
    54    19    29 1   
    55    20    21 ar  
    56    20    58 1   
    57    21    30 1   
    58    22    59 1   
    59    23    26 1   
    60    24    60 1   
    61    26    27 2   
    62    41    60 1   
    63    42    60 1   
@<TRIPOS>SUBSTRUCTURE
     1 ZHV         1 TEMP              0 ****  ****    0 ROOT
