@<TRIPOS>MOLECULE
ZHW
   25    26     1     0     0
SMALL
abcg2


@<TRIPOS>ATOM
      1 C05         24.4480    17.1540    62.3160 ca         1 ZHW       0.115100
      2 C06         23.4860    17.8610    61.6230 ca         1 ZHW      -0.072300
      3 C07         23.5750    17.8910    60.2300 ca         1 ZHW      -0.074300
      4 C08         22.4800    18.7640    59.6540 c5         1 ZHW       0.202800
      5 C33         21.4770    18.8630    60.8330 c5         1 ZHW      -0.114400
      6 C34         22.3060    18.6520    62.1190 c5         1 ZHW      -0.038100
      7 C35         24.5920    17.2240    59.5610 ca         1 ZHW      -0.063000
      8 C36         25.5330    16.5020    60.2920 ca         1 ZHW      -0.102000
      9 C37         25.4680    16.4630    61.6830 ca         1 ZHW      -0.103000
     10 N09         23.0620    20.0360    59.1930 n8         1 ZHW      -0.991200
     11 O02         24.6390    17.8950    65.9740 o          1 ZHW      -0.560500
     12 O03         24.9250    19.4600    64.0580 o          1 ZHW      -0.560500
     13 O04         24.3560    17.0670    63.7420 os         1 ZHW      -0.501800
     14 S01         25.0190    18.1660    64.6350 s6         1 ZHW       1.622600
     15 H1          22.0120    18.2970    58.7860 h1         1 ZHW       0.075700
     16 H2          20.9410    19.8120    60.8240 hc         1 ZHW       0.054200
     17 H3          20.7410    18.0600    60.7450 hc         1 ZHW       0.054200
     18 H4          22.6430    19.5990    62.5490 hc         1 ZHW       0.069700
     19 H5          21.7520    18.1290    62.8990 hc         1 ZHW       0.069700
     20 H6          24.6520    17.2590    58.4800 ha         1 ZHW       0.132000
     21 H7          26.3220    15.9630    59.7830 ha         1 ZHW       0.127000
     22 H8          26.1880    15.9050    62.2660 ha         1 ZHW       0.137000
     23 H9          22.3190    20.6410    58.8570 hn         1 ZHW       0.401000
     24 H10         23.4930    20.5200    59.9760 hn         1 ZHW       0.401000
     25 F1          26.5290    17.7470    64.5010 f          1 ZHW      -0.283900
@<TRIPOS>BOND
     1     1     2 ar  
     2     1     9 ar  
     3     1    13 1   
     4     2     3 ar  
     5     2     6 1   
     6     3     4 1   
     7     3     7 ar  
     8     4     5 1   
     9     4    10 1   
    10     4    15 1   
    11     5     6 1   
    12     5    16 1   
    13     5    17 1   
    14     6    18 1   
    15     6    19 1   
    16     7     8 ar  
    17     7    20 1   
    18     8     9 ar  
    19     8    21 1   
    20     9    22 1   
    21    10    23 1   
    22    10    24 1   
    23    11    14 2   
    24    12    14 2   
    25    13    14 1   
    26    14    25 1   
@<TRIPOS>SUBSTRUCTURE
     1 ZHW         1 TEMP              0 ****  ****    0 ROOT
