@<TRIPOS>MOLECULE
ZHW
   25    26     1     0     0
SMALL
No Charge or Current Charge


@<TRIPOS>ATOM
      1 C05         24.3710    17.1790    62.3780 ca         1 ZHW       0.115100
      2 C06         23.4480    17.8940    61.5950 ca         1 ZHW      -0.072300
      3 C07         23.5690    17.9340    60.2170 ca         1 ZHW      -0.074300
      4 C08         22.4860    18.7600    59.5710 c5         1 ZHW       0.202800
      5 C33         21.4330    18.8100    60.7410 c5         1 ZHW      -0.114400
      6 C34         22.2600    18.6890    62.0790 c5         1 ZHW      -0.038100
      7 C35         24.6100    17.2520    59.5640 ca         1 ZHW      -0.063000
      8 C36         25.5330    16.5150    60.3330 ca         1 ZHW      -0.102000
      9 C37         25.4110    16.4740    61.7390 ca         1 ZHW      -0.103000
     10 N09         23.0270    20.0820    59.2330 n8         1 ZHW      -0.991200
     11 O02         24.7630    17.9810    66.0710 o          1 ZHW      -0.560500
     12 O03         25.2430    19.4410    64.0350 o          1 ZHW      -0.560500
     13 O04         24.2340    17.1300    63.7430 os         1 ZHW      -0.501800
     14 S01         25.1900    18.1120    64.6670 s6         1 ZHW       1.622600
     15 H1          22.0810    18.2870    58.6620 h1         1 ZHW       0.075700
     16 H2          20.8060    19.7090    60.7160 hc         1 ZHW       0.054200
     17 H3          20.7490    17.9570    60.6520 hc         1 ZHW       0.054200
     18 H4          22.5630    19.6710    62.4600 hc         1 ZHW       0.069700
     19 H5          21.6960    18.1830    62.8700 hc         1 ZHW       0.069700
     20 H6          24.6990    17.2900    58.4810 ha         1 ZHW       0.132000
     21 H7          26.3390    15.9750    59.8410 ha         1 ZHW       0.127000
     22 H8          26.1190    15.8930    62.3250 ha         1 ZHW       0.137000
     23 H9          22.2590    20.6880    58.9260 hn         1 ZHW       0.401000
     24 H10         23.3550    20.5260    60.0980 hn         1 ZHW       0.401000
     25 F1          26.7120    17.4990    64.5820 f          1 ZHW      -0.283900
@<TRIPOS>BOND
     1     1     2 ar  
     2     1     9 ar  
     3     1    13 1   
     4     2     3 ar  
     5     2     6 1   
     6     3     4 1   
     7     3     7 ar  
     8     4     5 1   
     9     4    10 1   
    10     4    15 1   
    11     5     6 1   
    12     5    16 1   
    13     5    17 1   
    14     6    18 1   
    15     6    19 1   
    16     7     8 ar  
    17     7    20 1   
    18     8     9 ar  
    19     8    21 1   
    20     9    22 1   
    21    10    23 1   
    22    10    24 1   
    23    11    14 2   
    24    12    14 2   
    25    13    14 1   
    26    14    25 1   
@<TRIPOS>SUBSTRUCTURE
     1 ZHW         1 TEMP              0 ****  ****    0 ROOT
