@<TRIPOS>MOLECULE
ZHX
   42    43     1     0     0
SMALL
abcg2


@<TRIPOS>ATOM
      1 C1          -0.0580     3.5590    20.8360 c3         1 ZHX      -0.048900
      2 C2           0.5390     4.3030    21.9690 cc         1 ZHX       0.145800
      3 C3           0.4670     4.0280    23.3010 cd         1 ZHX      -0.170600
      4 C4          -1.6760     3.1780    24.0270 c          1 ZHX       0.604100
      5 C5          -2.3380     2.0890    24.8400 c3         1 ZHX      -0.163400
      6 C6          -2.2390     0.6920    24.2080 c3         1 ZHX      -0.053700
      7 N1          -0.3230     3.0640    23.9290 ns         1 ZHX      -0.398100
      8 O1          -2.2930     4.0760    23.4830 o          1 ZHX      -0.586100
      9 C7          -2.9280    -0.3230    25.1130 c3         1 ZHX      -0.090600
     10 C8          -2.8410     0.6660    22.8080 c3         1 ZHX      -0.090600
     11 C9           1.2500     5.0060    24.0080 c          1 ZHX       0.554200
     12 O2           1.4060     5.1920    25.2050 o          1 ZHX      -0.528000
     13 N2           1.8140     5.7880    23.0040 n          1 ZHX      -0.166400
     14 C10          2.2000     7.1300    23.2140 ca         1 ZHX       0.039600
     15 C11          3.3130     7.3910    24.0040 ca         1 ZHX      -0.104500
     16 C12          3.6860     8.7050    24.2490 ca         1 ZHX      -0.103000
     17 C13          2.9690     9.7540    23.6910 ca         1 ZHX      -0.112000
     18 C14          1.8670     9.4850    22.8900 ca         1 ZHX      -0.103000
     19 C15          1.4690     8.1770    22.6610 ca         1 ZHX      -0.104500
     20 N3           1.2820     5.4240    21.7760 na         1 ZHX      -0.395400
     21 C16          2.1190     5.6210    20.6080 c3         1 ZHX       0.194100
     22 H1          -0.5770     2.6760    21.2010 hc         1 ZHX       0.061033
     23 H2          -0.7740     4.1780    20.2940 hc         1 ZHX       0.061033
     24 H3           0.7020     3.2320    20.1260 hc         1 ZHX       0.061033
     25 H4          -1.8890     2.0660    25.8380 hc         1 ZHX       0.068700
     26 H5          -3.3900     2.3540    24.9640 hc         1 ZHX       0.068700
     27 H6          -1.1820     0.4140    24.1380 hc         1 ZHX       0.042700
     28 H7           0.1400     2.3590    24.4830 hn         1 ZHX       0.325500
     29 H8          -2.4860    -0.3340    26.1110 hc         1 ZHX       0.036533
     30 H9          -3.9900    -0.0910    25.2210 hc         1 ZHX       0.036533
     31 H10         -2.8500    -1.3300    24.7020 hc         1 ZHX       0.036533
     32 H11         -2.8000    -0.3400    22.3890 hc         1 ZHX       0.036533
     33 H12         -3.8890     0.9740    22.8300 hc         1 ZHX       0.036533
     34 H13         -2.3150     1.3260    22.1170 hc         1 ZHX       0.036533
     35 H14          3.8880     6.5730    24.4160 ha         1 ZHX       0.129500
     36 H15          4.5490     8.9060    24.8700 ha         1 ZHX       0.116000
     37 H16          3.2690    10.7770    23.8750 ha         1 ZHX       0.115000
     38 H17          1.3020    10.2980    22.4510 ha         1 ZHX       0.116000
     39 H18          0.5960     7.9700    22.0550 ha         1 ZHX       0.129500
     40 H19          2.4750     6.6480    20.5800 h1         1 ZHX       0.054700
     41 H20          2.9740     4.9420    20.5970 h1         1 ZHX       0.054700
     42 H21          1.5160     5.4590    19.7190 h1         1 ZHX       0.054700
@<TRIPOS>BOND
     1     1     2 1   
     2     1    22 1   
     3     1    23 1   
     4     1    24 1   
     5     2     3 2   
     6     2    20 1   
     7     3     7 1   
     8     3    11 1   
     9     4     5 1   
    10     4     7 1   
    11     4     8 2   
    12     5     6 1   
    13     5    25 1   
    14     5    26 1   
    15     6     9 1   
    16     6    10 1   
    17     6    27 1   
    18     7    28 1   
    19     9    29 1   
    20     9    30 1   
    21     9    31 1   
    22    10    32 1   
    23    10    33 1   
    24    10    34 1   
    25    11    12 2   
    26    11    13 1   
    27    13    14 1   
    28    13    20 1   
    29    14    15 ar  
    30    14    19 ar  
    31    15    16 ar  
    32    15    35 1   
    33    16    17 ar  
    34    16    36 1   
    35    17    18 ar  
    36    17    37 1   
    37    18    19 ar  
    38    18    38 1   
    39    19    39 1   
    40    20    21 1   
    41    21    40 1   
    42    21    41 1   
    43    21    42 1   
@<TRIPOS>SUBSTRUCTURE
     1 ZHX         1 TEMP              0 ****  ****    0 ROOT
