@<TRIPOS>MOLECULE
ZHX
   42    43     1     0     0
SMALL
No Charge or Current Charge


@<TRIPOS>ATOM
      1 C1          -0.3970     3.7750    20.7720 c3         1 ZHX      -0.048900
      2 C2           0.1250     4.6090    21.9160 cc         1 ZHX       0.145800
      3 C3          -0.0260     4.4620    23.2860 cd         1 ZHX      -0.170600
      4 C4          -1.9960     2.8940    23.5920 c          1 ZHX       0.604100
      5 C5          -2.5190     1.8690    24.6100 c3         1 ZHX      -0.163400
      6 C6          -2.2010     0.3990    24.2130 c3         1 ZHX      -0.053700
      7 N1          -0.8140     3.5160    23.9650 ns         1 ZHX      -0.398100
      8 O1          -2.6190     3.1770    22.5800 o          1 ZHX      -0.586100
      9 C7          -2.5380    -0.5700    25.3690 c3         1 ZHX      -0.090600
     10 C8          -2.9000    -0.0420    22.9050 c3         1 ZHX      -0.090600
     11 C9           0.8160     5.3980    24.0210 c          1 ZHX       0.554200
     12 O2           0.9150     5.5120    25.2370 o          1 ZHX      -0.528000
     13 N2           1.4400     6.1700    23.0450 n          1 ZHX      -0.166400
     14 C10          2.2150     7.3660    23.2600 ca         1 ZHX       0.039600
     15 C11          3.1590     7.4280    24.3060 ca         1 ZHX      -0.104500
     16 C12          3.9130     8.5960    24.5170 ca         1 ZHX      -0.103000
     17 C13          3.7260     9.7140    23.6880 ca         1 ZHX      -0.112000
     18 C14          2.7830     9.6640    22.6480 ca         1 ZHX      -0.103000
     19 C15          2.0300     8.4960    22.4360 ca         1 ZHX      -0.104500
     20 N3           1.0360     5.6700    21.7400 na         1 ZHX      -0.395400
     21 C16          1.9750     5.8920    20.6100 c3         1 ZHX       0.194100
     22 H1          -0.4800     2.7210    21.0590 hc         1 ZHX       0.061033
     23 H2          -1.3840     4.1290    20.4520 hc         1 ZHX       0.061033
     24 H3           0.2610     3.8160    19.8980 hc         1 ZHX       0.061033
     25 H4          -2.0450     2.0560    25.5810 hc         1 ZHX       0.068700
     26 H5          -3.6060     1.9830    24.7010 hc         1 ZHX       0.068700
     27 H6          -1.1180     0.3290    24.0440 hc         1 ZHX       0.042700
     28 H7          -0.5500     3.2960    24.9200 hn         1 ZHX       0.325500
     29 H8          -1.9890    -0.2990    26.2790 hc         1 ZHX       0.036533
     30 H9          -3.6110    -0.5500    25.5960 hc         1 ZHX       0.036533
     31 H10         -2.2620    -1.5990    25.1060 hc         1 ZHX       0.036533
     32 H11         -2.6790    -1.0940    22.6850 hc         1 ZHX       0.036533
     33 H12         -3.9880     0.0680    22.9860 hc         1 ZHX       0.036533
     34 H13         -2.5550     0.5510    22.0510 hc         1 ZHX       0.036533
     35 H14          3.3210     6.5670    24.9490 ha         1 ZHX       0.129500
     36 H15          4.6430     8.6330    25.3230 ha         1 ZHX       0.116000
     37 H16          4.3090    10.6180    23.8520 ha         1 ZHX       0.115000
     38 H17          2.6330    10.5310    22.0080 ha         1 ZHX       0.116000
     39 H18          1.2920     8.4750    21.6380 ha         1 ZHX       0.129500
     40 H19          2.9170     6.3320    20.9590 h1         1 ZHX       0.054700
     41 H20          2.2090     4.9380    20.1230 h1         1 ZHX       0.054700
     42 H21          1.5150     6.5650    19.8760 h1         1 ZHX       0.054700
@<TRIPOS>BOND
     1     1     2 1   
     2     1    22 1   
     3     1    23 1   
     4     1    24 1   
     5     2     3 2   
     6     2    20 1   
     7     3     7 1   
     8     3    11 1   
     9     4     5 1   
    10     4     7 1   
    11     4     8 2   
    12     5     6 1   
    13     5    25 1   
    14     5    26 1   
    15     6     9 1   
    16     6    10 1   
    17     6    27 1   
    18     7    28 1   
    19     9    29 1   
    20     9    30 1   
    21     9    31 1   
    22    10    32 1   
    23    10    33 1   
    24    10    34 1   
    25    11    12 2   
    26    11    13 1   
    27    13    14 1   
    28    13    20 1   
    29    14    15 ar  
    30    14    19 ar  
    31    15    16 ar  
    32    15    35 1   
    33    16    17 ar  
    34    16    36 1   
    35    17    18 ar  
    36    17    37 1   
    37    18    19 ar  
    38    18    38 1   
    39    19    39 1   
    40    20    21 1   
    41    21    40 1   
    42    21    41 1   
    43    21    42 1   
@<TRIPOS>SUBSTRUCTURE
     1 ZHX         1 TEMP              0 ****  ****    0 ROOT
