@<TRIPOS>MOLECULE
ZHY
   48    50     1     0     0
SMALL
bcc


@<TRIPOS>ATOM
      1 C1         -15.3970    13.9540    29.2540 ca         1 ZHY       0.240900
      2 C2         -15.4300    12.3070    26.7480 ca         1 ZHY      -0.111000
      3 C3         -17.3080    11.1660    27.7060 ca         1 ZHY      -0.111000
      4 C4         -16.4030    12.2270    27.7430 cp         1 ZHY      -0.127500
      5 C5         -16.5000    13.2420    28.8080 cp         1 ZHY       0.406500
      6 C6         -17.8270    14.3300    30.3110 ca         1 ZHY       0.583900
      7 C7         -15.3520    11.3450    25.7550 ca         1 ZHY      -0.097500
      8 O1         -24.1560    12.5450    30.3500 os         1 ZHY      -0.298900
      9 O2         -22.2650    11.7180    28.6660 os         1 ZHY      -0.299400
     10 C9         -17.2350    10.2110    26.7100 ca         1 ZHY      -0.097500
     11 C02        -21.2920    14.4740    31.5690 ca         1 ZHY      -0.294500
     12 C06        -20.5810    13.0910    29.7140 ca         1 ZHY      -0.294500
     13 C          -16.6970    15.0650    30.7450 ca         1 ZHY       0.232900
     14 C8         -16.2500    10.2810    25.7280 ca         1 ZHY      -0.139600
     15 C10        -20.2880    14.0250    30.7050 ca         1 ZHY       0.240600
     16 C03        -22.5870    13.9890    31.4400 ca         1 ZHY       0.186600
     17 C05        -21.8870    12.6140    29.5940 ca         1 ZHY       0.186600
     18 C04        -22.8950    13.0450    30.4560 ca         1 ZHY      -0.003900
     19 C01        -16.2360     9.2270    24.6650 c          1 ZHY       0.682700
     20 C13        -23.3790    15.3370    33.2230 c3         1 ZHY       0.122200
     21 C11        -21.2950    11.2060    27.7760 c3         1 ZHY       0.122200
     22 C12        -25.0030    13.2800    29.4790 c3         1 ZHY       0.123700
     23 N5         -15.5150    14.8660    30.2210 nb         1 ZHY      -0.600000
     24 N          -17.7050    13.4340    29.3500 nb         1 ZHY      -0.715000
     25 N1         -15.0740     9.0450    24.0190 nt         1 ZHY      -0.668000
     26 N8         -19.0260    14.5770    30.9070 nu         1 ZHY      -0.740300
     27 O02        -17.2430     8.5820    24.4110 o          1 ZHY      -0.600100
     28 O          -23.6100    14.3620    32.2270 os         1 ZHY      -0.299400
     29 H1         -14.4060    13.7860    28.8540 h4         1 ZHY       0.034100
     30 H2         -14.7400    13.1410    26.7220 ha         1 ZHY       0.144500
     31 H3         -18.0700    11.0820    28.4690 ha         1 ZHY       0.144500
     32 H4         -14.6000    11.4660    24.9860 ha         1 ZHY       0.144000
     33 H5         -17.9460     9.3950    26.7010 ha         1 ZHY       0.144000
     34 H6         -21.0470    15.2000    32.3340 ha         1 ZHY       0.154000
     35 H7         -19.8020    12.7530    29.0530 ha         1 ZHY       0.154000
     36 H8         -16.7900    15.8110    31.5290 h4         1 ZHY       0.028100
     37 H9         -24.3320    15.4990    33.7210 h1         1 ZHY       0.042533
     38 H10        -22.6490    15.0000    33.9640 h1         1 ZHY       0.042533
     39 H11        -23.0380    16.2840    32.7980 h1         1 ZHY       0.042533
     40 H12        -21.8170    10.5200    27.1140 h1         1 ZHY       0.042533
     41 H13        -20.8320    11.9910    27.1720 h1         1 ZHY       0.042533
     42 H14        -20.5090    10.6570    28.3010 h1         1 ZHY       0.042533
     43 H15        -25.9770    12.7920    29.4870 h1         1 ZHY       0.032367
     44 H16        -25.1310    14.3150    29.8090 h1         1 ZHY       0.032367
     45 H17        -24.6260    13.2850    28.4530 h1         1 ZHY       0.032367
     46 H18        -15.0070     8.3240    23.3190 hn         1 ZHY       0.314000
     47 H19        -14.2090     9.4540    24.3280 hn         1 ZHY       0.314000
     48 H20        -18.9920    15.2720    31.6370 hn         1 ZHY       0.442800
@<TRIPOS>BOND
     1     1     5 ar  
     2     1    23 ar  
     3     1    29 1   
     4     2     4 ar  
     5     2     7 ar  
     6     2    30 1   
     7     3     4 ar  
     8     3    10 ar  
     9     3    31 1   
    10     4     5 1   
    11     5    24 ar  
    12     6    13 ar  
    13     6    24 ar  
    14     6    26 1   
    15     7    14 ar  
    16     7    32 1   
    17     8    18 1   
    18     8    22 1   
    19     9    17 1   
    20     9    21 1   
    21    10    14 ar  
    22    10    33 1   
    23    11    15 ar  
    24    11    16 ar  
    25    11    34 1   
    26    12    15 ar  
    27    12    17 ar  
    28    12    35 1   
    29    13    23 ar  
    30    13    36 1   
    31    14    19 1   
    32    15    26 1   
    33    16    18 ar  
    34    16    28 1   
    35    17    18 ar  
    36    19    25 1   
    37    19    27 2   
    38    20    28 1   
    39    20    37 1   
    40    20    38 1   
    41    20    39 1   
    42    21    40 1   
    43    21    41 1   
    44    21    42 1   
    45    22    43 1   
    46    22    44 1   
    47    22    45 1   
    48    25    46 1   
    49    25    47 1   
    50    26    48 1   
@<TRIPOS>SUBSTRUCTURE
     1 ZHY         1 TEMP              0 ****  ****    0 ROOT
