@<TRIPOS>MOLECULE
ZHY
   48    50     1     0     0
SMALL
No Charge or Current Charge


@<TRIPOS>ATOM
      1 C1         -15.3730    14.2330    29.0670 ca         1 ZHY       0.240900
      2 C2         -15.3580    11.9510    27.0230 ca         1 ZHY      -0.093000
      3 C3         -17.4990    11.2150    27.8810 ca         1 ZHY      -0.093000
      4 C4         -16.4510    12.1760    27.9040 cp         1 ZHY      -0.127500
      5 C5         -16.5070    13.3830    28.8140 cp         1 ZHY       0.406500
      6 C6         -17.7850    14.7380    30.1820 ca         1 ZHY       0.583900
      7 C7         -15.3120    10.8300    26.1760 ca         1 ZHY      -0.079500
      8 O1         -24.2150    12.8560    30.3020 os         1 ZHY      -0.322100
      9 O2         -22.4420    12.9260    27.9670 os         1 ZHY      -0.322600
     10 C9         -17.4540    10.0940    27.0350 ca         1 ZHY      -0.079500
     11 C02        -21.1580    14.3920    31.6930 ca         1 ZHY      -0.276500
     12 C06        -20.7410    13.9450    29.3570 ca         1 ZHY      -0.276500
     13 C          -16.6470    15.5730    30.4260 ca         1 ZHY       0.232900
     14 C8         -16.3610     9.8820    26.1700 ca         1 ZHY      -0.139600
     15 C10        -20.2980    14.4140    30.5970 ca         1 ZHY       0.379000
     16 C03        -22.4590    13.8660    31.5680 ca         1 ZHY       0.186600
     17 C05        -22.0350    13.4050    29.2020 ca         1 ZHY       0.186600
     18 C04        -22.9130    13.3620    30.3270 ca         1 ZHY      -0.003900
     19 C01        -16.3420     8.6640    25.2700 c          1 ZHY       0.615700
     20 C13        -22.9650    14.3080    33.9550 c3         1 ZHY       0.145400
     21 C11        -21.5790    12.8820    26.8150 c3         1 ZHY       0.145400
     22 C12        -24.8630    12.2940    29.1460 c3         1 ZHY       0.146900
     23 N5         -15.4260    15.3310    29.8730 nb         1 ZHY      -0.600000
     24 N          -17.7080    13.6460    29.4000 nb         1 ZHY      -0.715000
     25 N1         -15.2810     8.4850    24.4510 nt         1 ZHY      -0.601000
     26 N8         -19.0300    14.9560    30.7720 nu         1 ZHY      -0.933900
     27 O02        -17.2420     7.8410    25.2540 o          1 ZHY      -0.600100
     28 O          -23.3250    13.8250    32.6490 os         1 ZHY      -0.322600
     29 H1         -14.4020    14.0260    28.6230 h4         1 ZHY       0.034100
     30 H2         -14.5310    12.6540    26.9750 ha         1 ZHY       0.126500
     31 H3         -18.3630    11.3300    28.5320 ha         1 ZHY       0.126500
     32 H4         -14.4490    10.7150    25.5240 ha         1 ZHY       0.126000
     33 H5         -18.2800     9.3860    27.0570 ha         1 ZHY       0.126000
     34 H6         -20.7990    14.7750    32.6420 ha         1 ZHY       0.136000
     35 H7         -20.0690    14.0170    28.5120 ha         1 ZHY       0.136000
     36 H8         -16.7210    16.4430    31.0770 h4         1 ZHY       0.028100
     37 H9         -23.8020    14.1770    34.6520 h1         1 ZHY       0.042533
     38 H10        -22.1030    13.7560    34.3510 h1         1 ZHY       0.042533
     39 H11        -22.7170    15.3770    33.9210 h1         1 ZHY       0.042533
     40 H12        -22.1090    12.4410    25.9620 h1         1 ZHY       0.042533
     41 H13        -21.2580    13.8910    26.5280 h1         1 ZHY       0.042533
     42 H14        -20.6910    12.2700    27.0160 h1         1 ZHY       0.042533
     43 H15        -25.8780    11.9690    29.4060 h1         1 ZHY       0.032367
     44 H16        -24.9450    13.0360    28.3420 h1         1 ZHY       0.032367
     45 H17        -24.3160    11.4170    28.7770 h1         1 ZHY       0.032367
     46 H18        -15.2580     7.6770    23.8480 hn         1 ZHY       0.314000
     47 H19        -14.5240     9.1510    24.4460 hn         1 ZHY       0.314000
     48 H20        -18.9730    15.5900    31.5660 hn         1 ZHY       0.498000
@<TRIPOS>BOND
     1     1     5 ar  
     2     1    23 ar  
     3     1    29 1   
     4     2     4 ar  
     5     2     7 ar  
     6     2    30 1   
     7     3     4 ar  
     8     3    10 ar  
     9     3    31 1   
    10     4     5 1   
    11     5    24 ar  
    12     6    13 ar  
    13     6    24 ar  
    14     6    26 1   
    15     7    14 ar  
    16     7    32 1   
    17     8    18 1   
    18     8    22 1   
    19     9    17 1   
    20     9    21 1   
    21    10    14 ar  
    22    10    33 1   
    23    11    15 ar  
    24    11    16 ar  
    25    11    34 1   
    26    12    15 ar  
    27    12    17 ar  
    28    12    35 1   
    29    13    23 ar  
    30    13    36 1   
    31    14    19 1   
    32    15    26 1   
    33    16    18 ar  
    34    16    28 1   
    35    17    18 ar  
    36    19    25 1   
    37    19    27 2   
    38    20    28 1   
    39    20    37 1   
    40    20    38 1   
    41    20    39 1   
    42    21    40 1   
    43    21    41 1   
    44    21    42 1   
    45    22    43 1   
    46    22    44 1   
    47    22    45 1   
    48    25    46 1   
    49    25    47 1   
    50    26    48 1   
@<TRIPOS>SUBSTRUCTURE
     1 ZHY         1 TEMP              0 ****  ****    0 ROOT
