@<TRIPOS>MOLECULE
ZHZ
   23    23     1     0     0
SMALL
bcc


@<TRIPOS>ATOM
      1 O2           0.2170    -2.6230    -1.7580 o          1 ZHZ      -0.594100
      2 CA           1.1610    -2.0580    -2.2890 c          1 ZHZ       0.669100
      3 N2           1.6400    -2.4040    -3.4930 nt         1 ZHZ      -0.681000
      4 CB           1.8650    -0.8770    -1.6390 c3         1 ZHZ      -0.106100
      5 CG           1.8620    -0.9590    -0.1410 ca         1 ZHZ      -0.110300
      6 CD2          0.7680    -0.5240     0.6050 ca         1 ZHZ      -0.073500
      7 CE2          0.7540    -0.6180     1.9840 ca         1 ZHZ      -0.189500
      8 CZ           1.8480    -1.1610     2.6630 ca         1 ZHZ       0.144100
      9 O1           1.7520    -1.2160     4.0070 os         1 ZHZ      -0.317900
     10 CF1          2.8210    -1.7840     4.7340 c3         1 ZHZ       0.125700
     11 CE1          2.9490    -1.5990     1.9330 ca         1 ZHZ      -0.189500
     12 CD1          2.9420    -1.4930     0.5460 ca         1 ZHZ      -0.073500
     13 HN21         2.4070    -1.9140    -3.9190 hn         1 ZHZ       0.311500
     14 HN22         1.1910    -3.1240    -4.0340 hn         1 ZHZ       0.311500
     15 HB1          1.3370     0.0230    -1.9700 hc         1 ZHZ       0.058700
     16 HB2          2.8850    -0.7850    -2.0160 hc         1 ZHZ       0.058700
     17 HD2         -0.0890    -0.0920     0.1020 ha         1 ZHZ       0.129000
     18 HE2         -0.1020    -0.2680     2.5470 ha         1 ZHZ       0.139500
     19 HF11         3.7490    -1.2200     4.6080 h1         1 ZHZ       0.040033
     20 HF12         3.0010    -2.8250     4.4510 h1         1 ZHZ       0.040033
     21 HF13         2.5340    -1.7520     5.7830 h1         1 ZHZ       0.040033
     22 HE1          3.8190    -2.0190     2.4180 ha         1 ZHZ       0.139500
     23 HD1          3.8090    -1.8400    -0.0030 ha         1 ZHZ       0.129000
@<TRIPOS>BOND
     1     1     2 2   
     2     2     3 1   
     3     2     4 1   
     4     3    13 1   
     5     3    14 1   
     6     4     5 1   
     7     4    15 1   
     8     4    16 1   
     9     5     6 ar  
    10     5    12 ar  
    11     6     7 ar  
    12     6    17 1   
    13     7     8 ar  
    14     7    18 1   
    15     8     9 1   
    16     8    11 ar  
    17     9    10 1   
    18    10    19 1   
    19    10    20 1   
    20    10    21 1   
    21    11    12 ar  
    22    11    22 1   
    23    12    23 1   
@<TRIPOS>SUBSTRUCTURE
     1 ZHZ         1 TEMP              0 ****  ****    0 ROOT
