@<TRIPOS>MOLECULE
ZHZ
   23    23     1     0     0
SMALL
No Charge or Current Charge


@<TRIPOS>ATOM
      1 O2          -0.1400    -2.0800    -2.4180 o          1 ZHZ      -0.594100
      2 CA           1.0610    -1.8610    -2.4080 c          1 ZHZ       0.602100
      3 N2           1.9130    -2.7140    -3.0170 nt         1 ZHZ      -0.614000
      4 CB           1.6920    -0.6430    -1.7220 c3         1 ZHZ      -0.106100
      5 CG           1.7450    -0.8300    -0.2070 ca         1 ZHZ      -0.110300
      6 CD2          0.6610    -0.4260     0.5960 ca         1 ZHZ      -0.055500
      7 CE2          0.7090    -0.6020     1.9890 ca         1 ZHZ      -0.171500
      8 CZ           1.8350    -1.1810     2.5950 ca         1 ZHZ       0.144100
      9 O1           1.8250    -1.3280     3.9680 os         1 ZHZ      -0.341100
     10 CF1          2.9280    -1.9100     4.6850 c3         1 ZHZ       0.148900
     11 CE1          2.9230    -1.5890     1.7930 ca         1 ZHZ      -0.171500
     12 CD1          2.8740    -1.4130     0.3990 ca         1 ZHZ      -0.055500
     13 HN21         2.9060    -2.5340    -3.0040 hn         1 ZHZ       0.311500
     14 HN22         1.5460    -3.5330    -3.4800 hn         1 ZHZ       0.311500
     15 HB1          1.0900     0.2420    -1.9600 hc         1 ZHZ       0.058700
     16 HB2          2.7110    -0.4940    -2.1000 hc         1 ZHZ       0.058700
     17 HD2         -0.2200     0.0220     0.1410 ha         1 ZHZ       0.111000
     18 HE2         -0.1310    -0.2880     2.6030 ha         1 ZHZ       0.121500
     19 HF11         3.8440    -1.3250     4.5320 h1         1 ZHZ       0.040033
     20 HF12         3.1080    -2.9410     4.3540 h1         1 ZHZ       0.040033
     21 HF13         2.7130    -1.9310     5.7600 h1         1 ZHZ       0.040033
     22 HE1          3.8080    -2.0410     2.2300 ha         1 ZHZ       0.121500
     23 HD1          3.7180    -1.7310    -0.2100 ha         1 ZHZ       0.111000
@<TRIPOS>BOND
     1     1     2 2   
     2     2     3 1   
     3     2     4 1   
     4     3    13 1   
     5     3    14 1   
     6     4     5 1   
     7     4    15 1   
     8     4    16 1   
     9     5     6 ar  
    10     5    12 ar  
    11     6     7 ar  
    12     6    17 1   
    13     7     8 ar  
    14     7    18 1   
    15     8     9 1   
    16     8    11 ar  
    17     9    10 1   
    18    10    19 1   
    19    10    20 1   
    20    10    21 1   
    21    11    12 ar  
    22    11    22 1   
    23    12    23 1   
@<TRIPOS>SUBSTRUCTURE
     1 ZHZ         1 TEMP              0 ****  ****    0 ROOT
