@<TRIPOS>MOLECULE
ZI1
   42    44     1     0     0
SMALL
bcc


@<TRIPOS>ATOM
      1 F5           6.7200    -2.6290    -1.8120 f          1 ZI1      -0.233967
      2 C19          6.8170    -1.7000    -0.8480 c3         1 ZI1       0.720200
      3 F3           7.4260    -2.2900     0.1890 f          1 ZI1      -0.233967
      4 F4           7.6450    -0.7550    -1.3040 f          1 ZI1      -0.233967
      5 C16          5.4760    -1.1560    -0.4720 ca         1 ZI1      -0.187300
      6 C15          4.6550    -1.8900     0.3780 ca         1 ZI1      -0.083000
      7 C14          3.3980    -1.4160     0.7060 ca         1 ZI1      -0.107500
      8 C17          5.0220     0.0440    -1.0010 ca         1 ZI1      -0.083000
      9 C18          3.7610     0.5160    -0.6720 ca         1 ZI1      -0.107500
     10 C13          2.9380    -0.2010     0.1940 ca         1 ZI1      -0.089500
     11 C11          1.6070     0.2620     0.5750 cc         1 ZI1       0.331500
     12 N2           0.6170    -0.6330     0.9310 nc         1 ZI1      -0.664000
     13 C12          1.0810     1.5070     0.7000 cd         1 ZI1       0.191600
     14 BR1          1.7410     3.2090     0.5020 br         1 ZI1      -0.054200
     15 O3          -0.1970     1.3940     1.1170 os         1 ZI1      -0.301800
     16 C10         -0.4080     0.0750     1.2320 cd         1 ZI1       0.494700
     17 C8          -1.7410    -0.4050     1.6940 c3         1 ZI1       0.135800
     18 C9          -2.1120     0.1390     3.0640 c3         1 ZI1      -0.123100
     19 O2          -2.6650     0.0090     0.6940 os         1 ZI1      -0.300900
     20 C4          -3.8450    -0.6320     0.5820 ca         1 ZI1       0.086100
     21 C5          -4.2360    -1.7710     1.2730 ca         1 ZI1      -0.155000
     22 C3          -4.7420    -0.0940    -0.3400 ca         1 ZI1       0.162900
     23 F1          -4.3820     1.0010    -1.0170 f          1 ZI1      -0.115900
     24 C2          -5.9770    -0.6500    -0.5890 ca         1 ZI1      -0.214600
     25 C7          -6.3220    -1.7930     0.1170 ca         1 ZI1       0.163900
     26 F2          -7.5230    -2.3390    -0.1170 f          1 ZI1      -0.125900
     27 C6          -5.4770    -2.3550     1.0440 ca         1 ZI1      -0.153000
     28 C1          -6.8880    -0.0890    -1.6480 c          1 ZI1       0.703700
     29 O1          -6.9660    -0.6170    -2.7420 o          1 ZI1      -0.570100
     30 N1          -7.5670     0.9940    -1.2690 nt         1 ZI1      -0.661000
     31 H1           4.9840    -2.8320     0.7970 ha         1 ZI1       0.150500
     32 H2           2.7710    -1.9920     1.3720 ha         1 ZI1       0.150000
     33 H3           5.6330     0.6240    -1.6780 ha         1 ZI1       0.150500
     34 H4           3.4250     1.4380    -1.1240 ha         1 ZI1       0.150000
     35 H5          -1.6600    -1.4950     1.7240 h1         1 ZI1       0.081700
     36 H6          -2.1730     1.2260     3.0570 hc         1 ZI1       0.059367
     37 H7          -3.0730    -0.2560     3.3930 hc         1 ZI1       0.059367
     38 H8          -1.3630    -0.1640     3.7950 hc         1 ZI1       0.059367
     39 H9          -3.5880    -2.2350     2.0040 ha         1 ZI1       0.145000
     40 H10         -5.7710    -3.2410     1.5910 ha         1 ZI1       0.160000
     41 H11         -7.4950     1.3670    -0.3380 hn         1 ZI1       0.320000
     42 H12         -8.2110     1.4420    -1.9020 hn         1 ZI1       0.320000
@<TRIPOS>BOND
     1     1     2 1   
     2     2     3 1   
     3     2     4 1   
     4     2     5 1   
     5     5     6 ar  
     6     5     8 ar  
     7     6     7 ar  
     8     6    31 1   
     9     7    10 ar  
    10     7    32 1   
    11     8     9 ar  
    12     8    33 1   
    13     9    10 ar  
    14     9    34 1   
    15    10    11 1   
    16    11    12 1   
    17    11    13 2   
    18    12    16 2   
    19    13    14 1   
    20    13    15 1   
    21    15    16 1   
    22    16    17 1   
    23    17    18 1   
    24    17    19 1   
    25    17    35 1   
    26    18    36 1   
    27    18    37 1   
    28    18    38 1   
    29    19    20 1   
    30    20    21 ar  
    31    20    22 ar  
    32    21    27 ar  
    33    21    39 1   
    34    22    23 1   
    35    22    24 ar  
    36    24    25 ar  
    37    24    28 1   
    38    25    26 1   
    39    25    27 ar  
    40    27    40 1   
    41    28    29 2   
    42    28    30 1   
    43    30    41 1   
    44    30    42 1   
@<TRIPOS>SUBSTRUCTURE
     1 ZI1         1 TEMP              0 ****  ****    0 ROOT
