@<TRIPOS>MOLECULE
ZI1
   42    44     1     0     0
SMALL
No Charge or Current Charge


@<TRIPOS>ATOM
      1 F5           7.2700    -2.3460    -1.5310 f          1 ZI1      -0.112667
      2 C19          7.1890    -1.3340    -0.6380 c3         1 ZI1       0.356300
      3 F3           7.8550    -1.7310     0.4710 f          1 ZI1      -0.112667
      4 F4           7.8840    -0.2950    -1.1540 f          1 ZI1      -0.112667
      5 C16          5.7290    -0.9700    -0.3420 ca         1 ZI1      -0.187300
      6 C15          5.0240    -1.6130     0.6960 ca         1 ZI1      -0.065000
      7 C14          3.6830    -1.2850     0.9590 ca         1 ZI1      -0.089500
      8 C17          5.0540    -0.0130    -1.1290 ca         1 ZI1      -0.065000
      9 C18          3.7130     0.3130    -0.8640 ca         1 ZI1      -0.089500
     10 C13          3.0210    -0.2950     0.2050 ca         1 ZI1      -0.089500
     11 C11          1.6060    -0.0030     0.4650 cc         1 ZI1       0.331500
     12 N2           0.6730    -0.9210     0.8510 nc         1 ZI1      -0.664000
     13 C12          1.0590     1.2530     0.4650 cd         1 ZI1       0.147200
     14 Br1          1.8590     2.9470     0.1950 br         1 ZI1      -0.054200
     15 O3          -0.2510     1.1800     0.8140 os         1 ZI1      -0.213000
     16 C10         -0.4120    -0.1680     1.0280 cd         1 ZI1       0.450300
     17 C8          -1.7600    -0.7050     1.4790 c3         1 ZI1       0.159000
     18 C9          -2.1290    -0.2230     2.9030 c3         1 ZI1      -0.123100
     19 O2          -2.7810    -0.2390     0.5640 os         1 ZI1      -0.324100
     20 C4          -4.0690    -0.7520     0.5110 ca         1 ZI1       0.086100
     21 C5          -4.4300    -1.9460     1.1670 ca         1 ZI1      -0.137000
     22 C3          -5.0350    -0.0560    -0.2530 ca         1 ZI1       0.198000
     23 F1          -4.6330     1.0660    -0.8960 f          1 ZI1      -0.151000
     24 C2          -6.3730    -0.5260    -0.3650 ca         1 ZI1      -0.214600
     25 C7          -6.7030    -1.7260     0.3120 ca         1 ZI1       0.199000
     26 F2          -7.9550    -2.2340     0.2800 f          1 ZI1      -0.161000
     27 C6          -5.7450    -2.4220     1.0640 ca         1 ZI1      -0.135000
     28 C1          -7.4260     0.2030    -1.1740 c          1 ZI1       0.636700
     29 O1          -8.4620    -0.3180    -1.5510 o          1 ZI1      -0.570100
     30 N1          -7.2100     1.4880    -1.5260 nt         1 ZI1      -0.594000
     31 H1           5.5090    -2.3770     1.3020 ha         1 ZI1       0.132500
     32 H2           3.1570    -1.7990     1.7620 ha         1 ZI1       0.132000
     33 H3           5.5620     0.4750    -1.9590 ha         1 ZI1       0.132500
     34 H4           3.2120     1.0320    -1.5080 ha         1 ZI1       0.132000
     35 H5          -1.6900    -1.8000     1.4630 h1         1 ZI1       0.081700
     36 H6          -2.2250     0.8690     2.9300 hc         1 ZI1       0.059367
     37 H7          -3.0750    -0.6600     3.2410 hc         1 ZI1       0.059367
     38 H8          -1.3500    -0.5160     3.6160 hc         1 ZI1       0.059367
     39 H9          -3.7150    -2.5170     1.7510 ha         1 ZI1       0.127000
     40 H10         -6.0290    -3.3400     1.5730 ha         1 ZI1       0.142000
     41 H11         -6.3570     1.9500    -1.2490 hn         1 ZI1       0.320000
     42 H12         -7.9050     1.9720    -2.0740 hn         1 ZI1       0.320000
@<TRIPOS>BOND
     1     1     2 1   
     2     2     3 1   
     3     2     4 1   
     4     2     5 1   
     5     5     6 ar  
     6     5     8 ar  
     7     6     7 ar  
     8     6    31 1   
     9     7    10 ar  
    10     7    32 1   
    11     8     9 ar  
    12     8    33 1   
    13     9    10 ar  
    14     9    34 1   
    15    10    11 1   
    16    11    12 1   
    17    11    13 2   
    18    12    16 2   
    19    13    14 1   
    20    13    15 1   
    21    15    16 1   
    22    16    17 1   
    23    17    18 1   
    24    17    19 1   
    25    17    35 1   
    26    18    36 1   
    27    18    37 1   
    28    18    38 1   
    29    19    20 1   
    30    20    21 ar  
    31    20    22 ar  
    32    21    27 ar  
    33    21    39 1   
    34    22    23 1   
    35    22    24 ar  
    36    24    25 ar  
    37    24    28 1   
    38    25    26 1   
    39    25    27 ar  
    40    27    40 1   
    41    28    29 2   
    42    28    30 1   
    43    30    41 1   
    44    30    42 1   
@<TRIPOS>SUBSTRUCTURE
     1 ZI1         1 TEMP              0 ****  ****    0 ROOT
