@<TRIPOS>MOLECULE
ZI2
   46    47     1     0     0
SMALL
No Charge or Current Charge


@<TRIPOS>ATOM
      1 C1         -13.5310   -27.8880   -62.7560 c3         1 ZI2      -0.179100
      2 C2         -13.9650   -29.0770   -63.6010 c          1 ZI2       0.598100
      3 O1         -13.5790   -29.2450   -64.7470 o          1 ZI2      -0.589100
      4 N1         -14.8380   -29.9400   -62.9760 ns         1 ZI2      -0.515900
      5 C3         -15.3110   -31.2380   -63.5310 c6         1 ZI2       0.041700
      6 C4         -16.7830   -31.5180   -63.1130 c6         1 ZI2       0.159300
      7 O2         -17.6480   -30.4630   -63.5770 oh         1 ZI2      -0.661000
      8 C5         -17.2680   -32.9060   -63.6480 c6         1 ZI2       0.139500
      9 N2         -18.6750   -33.1650   -63.2140 n8         1 ZI2      -1.006200
     10 C6         -16.2610   -34.0180   -63.2000 c6         1 ZI2       0.177300
     11 C7         -16.6060   -35.4260   -63.7910 c3         1 ZI2       0.169600
     12 O3         -15.6480   -36.4480   -63.4380 oh         1 ZI2      -0.715000
     13 O4         -14.9240   -33.6590   -63.6310 os         1 ZI2      -0.465000
     14 C8         -14.4300   -32.4350   -63.0600 c6         1 ZI2       0.380300
     15 O5         -13.0670   -32.2570   -63.4830 os         1 ZI2      -0.430000
     16 C9         -12.0870   -33.2000   -62.9930 c3         1 ZI2       0.163600
     17 C10        -11.8610   -33.0240   -61.4620 c6         1 ZI2       0.100300
     18 C11        -11.4650   -31.5640   -61.0790 c6         1 ZI2       0.122600
     19 O6         -11.1680   -31.4970   -59.6620 os         1 ZI2      -0.459000
     20 C12        -10.1050   -32.4020   -59.2700 c6         1 ZI2       0.115600
     21 C13        -10.4940   -33.8580   -59.6520 c6         1 ZI2       0.122600
     22 O7         -10.7930   -33.9250   -61.0690 os         1 ZI2      -0.457000
     23 H1         -14.4220   -27.3570   -62.4010 hc         1 ZI2       0.064367
     24 H2         -13.0920   -28.2560   -61.8220 hc         1 ZI2       0.064367
     25 H3         -12.8470   -27.2190   -63.2890 hc         1 ZI2       0.064367
     26 H4         -15.0800   -29.7080   -62.0180 hn         1 ZI2       0.305500
     27 H5         -15.2590   -31.2000   -64.6290 h1         1 ZI2       0.123700
     28 H6         -16.8150   -31.5510   -62.0130 h1         1 ZI2       0.040700
     29 H7         -17.1550   -29.6240   -63.4450 ho         1 ZI2       0.454000
     30 H8         -17.2720   -32.8570   -64.7480 h1         1 ZI2       0.052700
     31 H9         -19.1540   -32.2530   -63.2160 hn         1 ZI2       0.409000
     32 H10        -19.1650   -33.6830   -63.9530 hn         1 ZI2       0.409000
     33 H12        -16.2700   -34.0980   -62.1030 h1         1 ZI2       0.061700
     34 H13        -16.6670   -35.3310   -64.8840 h1         1 ZI2       0.033700
     35 H14        -17.6030   -35.7160   -63.4340 h1         1 ZI2       0.033700
     36 H15        -15.9170   -37.2690   -63.9120 ho         1 ZI2       0.503000
     37 H16        -14.4710   -32.4980   -61.9630 h2         1 ZI2       0.023700
     38 H17        -12.4000   -34.2330   -63.1940 h1         1 ZI2       0.072200
     39 H18        -11.1290   -33.0380   -63.5030 h1         1 ZI2       0.072200
     40 H19        -12.7760   -33.3130   -60.9260 h1         1 ZI2       0.037700
     41 H20        -10.5850   -31.2440   -61.6560 h1         1 ZI2       0.066700
     42 H21        -12.2920   -30.8750   -61.3050 h1         1 ZI2       0.066700
     43 H22         -9.1720   -32.1140   -59.7750 h1         1 ZI2       0.057200
     44 H23         -9.9480   -32.3270   -58.1850 h1         1 ZI2       0.057200
     45 H24        -11.3720   -34.1800   -59.0750 h1         1 ZI2       0.055700
     46 H25         -9.6630   -34.5410   -59.4260 h1         1 ZI2       0.055700
@<TRIPOS>BOND
     1     1     2 1   
     2     1    23 1   
     3     1    24 1   
     4     1    25 1   
     5     2     3 2   
     6     2     4 1   
     7     4     5 1   
     8     4    26 1   
     9     5     6 1   
    10     5    14 1   
    11     5    27 1   
    12     6     7 1   
    13     6     8 1   
    14     6    28 1   
    15     7    29 1   
    16     8     9 1   
    17     8    10 1   
    18     8    30 1   
    19     9    31 1   
    20     9    32 1   
    21    10    11 1   
    22    10    13 1   
    23    10    33 1   
    24    11    12 1   
    25    11    34 1   
    26    11    35 1   
    27    12    36 1   
    28    13    14 1   
    29    14    15 1   
    30    14    37 1   
    31    15    16 1   
    32    16    17 1   
    33    16    38 1   
    34    16    39 1   
    35    17    18 1   
    36    17    22 1   
    37    17    40 1   
    38    18    19 1   
    39    18    41 1   
    40    18    42 1   
    41    19    20 1   
    42    20    21 1   
    43    20    43 1   
    44    20    44 1   
    45    21    22 1   
    46    21    45 1   
    47    21    46 1   
@<TRIPOS>SUBSTRUCTURE
     1 ZI2         1 TEMP              0 ****  ****    0 ROOT
