@<TRIPOS>MOLECULE
ZI2
   46    47     1     0     0
SMALL
abcg2


@<TRIPOS>ATOM
      1 C1         -13.5000   -28.5030   -61.8250 c3         1 ZI2      -0.179100
      2 C2         -13.9840   -29.4520   -62.8960 c          1 ZI2       0.598100
      3 O1         -13.7070   -29.2770   -64.0820 o          1 ZI2      -0.589100
      4 N1         -14.7340   -30.4900   -62.4610 ns         1 ZI2      -0.515900
      5 C3         -15.2450   -31.5410   -63.3140 c6         1 ZI2       0.041700
      6 C4         -16.7560   -31.6890   -63.1200 c6         1 ZI2       0.159300
      7 O2         -17.4450   -30.5190   -63.5510 oh         1 ZI2      -0.661000
      8 C5         -17.3100   -32.8710   -63.9030 c6         1 ZI2       0.139500
      9 N2         -18.7180   -33.0550   -63.5430 n8         1 ZI2      -1.006200
     10 C6         -16.4930   -34.1270   -63.5640 c6         1 ZI2       0.177300
     11 C7         -16.9110   -35.3230   -64.3880 c3         1 ZI2       0.169600
     12 O3         -16.2280   -36.4800   -63.9080 oh         1 ZI2      -0.715000
     13 O4         -15.1070   -33.8940   -63.8290 os         1 ZI2      -0.465000
     14 C8         -14.5470   -32.8700   -63.0250 c6         1 ZI2       0.380300
     15 O5         -13.2010   -32.7670   -63.3550 os         1 ZI2      -0.430000
     16 C9         -12.3110   -33.5230   -62.5310 c3         1 ZI2       0.163600
     17 C10        -11.8120   -32.6650   -61.3800 c6         1 ZI2       0.100300
     18 C11        -10.9040   -31.5380   -61.8460 c6         1 ZI2       0.122600
     19 O6         -10.4040   -30.7980   -60.7340 os         1 ZI2      -0.459000
     20 C12         -9.7010   -31.6570   -59.8350 c6         1 ZI2       0.115600
     21 C13        -10.5950   -32.7880   -59.3680 c6         1 ZI2       0.122600
     22 O7         -11.1030   -33.5220   -60.4850 os         1 ZI2      -0.457000
     23 H1         -13.8260   -27.4940   -62.0780 hc         1 ZI2       0.064367
     24 H2         -13.8590   -28.7610   -60.8300 hc         1 ZI2       0.064367
     25 H3         -12.4090   -28.5100   -61.8220 hc         1 ZI2       0.064367
     26 H4         -14.8840   -30.5830   -61.4670 hn         1 ZI2       0.305500
     27 H5         -15.0340   -31.2610   -64.3450 h1         1 ZI2       0.123700
     28 H6         -16.9570   -31.8620   -62.0540 h1         1 ZI2       0.040700
     29 H7         -17.1830   -29.7850   -62.9810 ho         1 ZI2       0.454000
     30 H8         -17.1690   -32.6580   -64.9720 h1         1 ZI2       0.052700
     31 H9         -19.1780   -32.1510   -63.5600 hn         1 ZI2       0.409000
     32 H10        -19.1910   -33.6230   -64.2370 hn         1 ZI2       0.409000
     33 H12        -16.6280   -34.3600   -62.4990 h1         1 ZI2       0.061700
     34 H13        -16.6680   -35.1340   -65.4390 h1         1 ZI2       0.033700
     35 H14        -17.9920   -35.4570   -64.2990 h1         1 ZI2       0.033700
     36 H15        -16.5290   -37.2400   -64.4200 ho         1 ZI2       0.503000
     37 H16        -14.6720   -33.1360   -61.9650 h2         1 ZI2       0.023700
     38 H17        -12.8050   -34.4160   -62.1420 h1         1 ZI2       0.072200
     39 H18        -11.4790   -33.8360   -63.1630 h1         1 ZI2       0.072200
     40 H19        -12.6720   -32.2310   -60.8500 h1         1 ZI2       0.037700
     41 H20        -10.0660   -31.9620   -62.4160 h1         1 ZI2       0.066700
     42 H21        -11.4470   -30.8400   -62.4800 h1         1 ZI2       0.066700
     43 H22         -8.8130   -32.0640   -60.3360 h1         1 ZI2       0.057200
     44 H23         -9.3850   -31.0440   -58.9900 h1         1 ZI2       0.057200
     45 H24        -11.4340   -32.3870   -58.7860 h1         1 ZI2       0.055700
     46 H25        -10.0360   -33.4930   -58.7530 h1         1 ZI2       0.055700
@<TRIPOS>BOND
     1     1     2 1   
     2     1    23 1   
     3     1    24 1   
     4     1    25 1   
     5     2     3 2   
     6     2     4 1   
     7     4     5 1   
     8     4    26 1   
     9     5     6 1   
    10     5    14 1   
    11     5    27 1   
    12     6     7 1   
    13     6     8 1   
    14     6    28 1   
    15     7    29 1   
    16     8     9 1   
    17     8    10 1   
    18     8    30 1   
    19     9    31 1   
    20     9    32 1   
    21    10    11 1   
    22    10    13 1   
    23    10    33 1   
    24    11    12 1   
    25    11    34 1   
    26    11    35 1   
    27    12    36 1   
    28    13    14 1   
    29    14    15 1   
    30    14    37 1   
    31    15    16 1   
    32    16    17 1   
    33    16    38 1   
    34    16    39 1   
    35    17    18 1   
    36    17    22 1   
    37    17    40 1   
    38    18    19 1   
    39    18    41 1   
    40    18    42 1   
    41    19    20 1   
    42    20    21 1   
    43    20    43 1   
    44    20    44 1   
    45    21    22 1   
    46    21    45 1   
    47    21    46 1   
@<TRIPOS>SUBSTRUCTURE
     1 ZI2         1 TEMP              0 ****  ****    0 ROOT
