@<TRIPOS>MOLECULE
ZI3
   51    54     1     0     0
SMALL
No Charge or Current Charge


@<TRIPOS>ATOM
      1 C8          98.3220    56.5590    13.0150 c          1 ZI3       0.603100
      2 C10         98.2090    56.0640    10.5120 ca         1 ZI3      -0.037000
      3 C13         97.0450    54.0840     7.3760 c          1 ZI3       0.608700
      4 C15         95.3170    53.2240     5.7810 cy         1 ZI3       0.111700
      5 C17         95.5580    50.8370     6.7050 ca         1 ZI3      -0.087000
      6 C21         92.9250    50.8710     7.6830 ca         1 ZI3      -0.102000
      7 C22         93.4390    51.9930     7.0080 ca         1 ZI3      -0.087000
      8 C28         97.1250    57.5660     8.9200 ca         1 ZI3      -0.102000
      9 O7          99.0940    56.6440    13.9650 o          1 ZI3      -0.592100
     10 N9          98.6700    55.7960    11.8680 n          1 ZI3      -0.244400
     11 C11         97.9810    54.9740     9.6280 ca         1 ZI3      -0.054300
     12 C12         97.3220    55.1870     8.3780 ca         1 ZI3      -0.131600
     13 N14         95.8120    54.1620     6.7610 ns         1 ZI3      -0.499900
     14 C16         94.7560    51.9810     6.4950 ca         1 ZI3      -0.083300
     15 C18         95.0420    49.7170     7.3800 ca         1 ZI3      -0.102000
     16 C19         93.7250    49.7330     7.8640 ca         1 ZI3       0.129000
     17 Cl20        93.0830    48.3330     8.7120 cl         1 ZI3      -0.208000
     18 C23         94.3670    53.8120     4.6670 cy         1 ZI3       0.143600
     19 O24         94.9830    52.8830     3.7090 oq         1 ZI3      -0.456000
     20 C25         96.2130    52.9380     4.5100 cy         1 ZI3       0.143600
     21 O26         97.8670    53.2370     7.0560 o          1 ZI3      -0.584100
     22 C27         96.8970    56.4950     8.0490 ca         1 ZI3      -0.101000
     23 C29         97.7610    57.3500    10.1460 ca         1 ZI3      -0.107000
     24 C30         98.4820    53.5980    10.0950 c6         1 ZI3      -0.036100
     25 C31         99.8200    53.7730    10.8380 c6         1 ZI3      -0.089400
     26 C32         99.6450    54.6870    12.0690 c6         1 ZI3       0.099000
     27 C33         96.9270    57.2180    13.1000 c3         1 ZI3      -0.153400
     28 C34         96.1660    56.8650    14.3980 c3         1 ZI3      -0.086100
     29 H2          91.9100    50.8870     8.0700 ha         1 ZI3       0.132000
     30 H3          92.8110    52.8730     6.8930 ha         1 ZI3       0.122000
     31 H4          96.8000    58.5680     8.6460 ha         1 ZI3       0.123000
     32 H5          95.2040    54.8980     7.0980 hn         1 ZI3       0.325500
     33 H6          95.6650    48.8400     7.5340 ha         1 ZI3       0.132000
     34 H7          94.5670    54.8580     4.4010 h1         1 ZI3       0.067700
     35 H8          93.2940    53.6350     4.7920 h1         1 ZI3       0.067700
     36 H9          96.7670    51.9940     4.4970 h1         1 ZI3       0.067700
     37 H10         96.8550    53.7750     4.2090 h1         1 ZI3       0.067700
     38 H11         96.4110    56.6970     7.0970 ha         1 ZI3       0.120000
     39 H12         97.9220    58.2010    10.8020 ha         1 ZI3       0.127000
     40 H13         97.7370    53.1390    10.7600 hc         1 ZI3       0.066200
     41 H14         98.6400    52.8900     9.2780 hc         1 ZI3       0.066200
     42 H15        100.2260    52.7990    11.1460 hc         1 ZI3       0.058200
     43 H16        100.5560    54.2180    10.1540 hc         1 ZI3       0.058200
     44 H17         99.2890    54.0720    12.9080 h1         1 ZI3       0.062700
     45 H18        100.6210    55.1000    12.3600 h1         1 ZI3       0.062700
     46 H19         97.0640    58.3040    13.0570 hc         1 ZI3       0.067200
     47 H20         96.3120    56.9330    12.2400 hc         1 ZI3       0.067200
     48 H21         95.1790    57.3430    14.4050 hc         1 ZI3       0.041033
     49 H22         96.0220    55.7810    14.4790 hc         1 ZI3       0.041033
     50 H23         96.7170    57.2090    15.2820 hc         1 ZI3       0.041033
     51 H1          96.5880    50.8120     6.3580 ha         1 ZI3       0.122000
@<TRIPOS>BOND
     1     1     9 2   
     2     1    10 1   
     3     1    27 1   
     4     2    10 1   
     5     2    11 ar  
     6     2    23 ar  
     7     3    12 1   
     8     3    13 1   
     9     3    21 2   
    10     4    13 1   
    11     4    14 1   
    12     4    18 1   
    13     4    20 1   
    14     5    14 ar  
    15     5    15 ar  
    16     5    51 1   
    17     6     7 ar  
    18     6    16 ar  
    19     6    29 1   
    20     7    14 ar  
    21     7    30 1   
    22     8    22 ar  
    23     8    23 ar  
    24     8    31 1   
    25    10    26 1   
    26    11    12 ar  
    27    11    24 1   
    28    12    22 ar  
    29    13    32 1   
    30    15    16 ar  
    31    15    33 1   
    32    16    17 1   
    33    18    19 1   
    34    18    34 1   
    35    18    35 1   
    36    19    20 1   
    37    20    36 1   
    38    20    37 1   
    39    22    38 1   
    40    23    39 1   
    41    24    25 1   
    42    24    40 1   
    43    24    41 1   
    44    25    26 1   
    45    25    42 1   
    46    25    43 1   
    47    26    44 1   
    48    26    45 1   
    49    27    28 1   
    50    27    46 1   
    51    27    47 1   
    52    28    48 1   
    53    28    49 1   
    54    28    50 1   
@<TRIPOS>SUBSTRUCTURE
     1 ZI3         1 TEMP              0 ****  ****    0 ROOT
