@<TRIPOS>MOLECULE
ZI3
   51    54     1     0     0
SMALL
abcg2


@<TRIPOS>ATOM
      1 C8          98.0340    56.5160    13.0190 c          1 ZI3       0.603100
      2 C10         98.1620    56.2200    10.5750 ca         1 ZI3      -0.037000
      3 C13         97.0610    54.2030     7.5620 c          1 ZI3       0.608700
      4 C15         95.3660    53.2190     6.0970 cy         1 ZI3       0.111700
      5 C17         94.6210    50.8100     6.0790 ca         1 ZI3      -0.087000
      6 C21         94.5230    50.7040     8.8520 ca         1 ZI3      -0.102000
      7 C22         94.9100    51.8730     8.2060 ca         1 ZI3      -0.087000
      8 C28         97.6690    57.7290     8.7710 ca         1 ZI3      -0.102000
      9 O7          98.5170    56.3090    14.1320 o          1 ZI3      -0.592100
     10 N9          98.5840    55.9460    11.9030 n          1 ZI3      -0.244400
     11 C11         97.8240    55.1190     9.7780 ca         1 ZI3      -0.054300
     12 C12         97.3890    55.3480     8.4700 ca         1 ZI3      -0.131600
     13 N14         95.8390    54.2520     6.9920 ns         1 ZI3      -0.499900
     14 C16         94.9710    51.9430     6.8170 ca         1 ZI3      -0.083300
     15 C18         94.2300    49.6350     6.7060 ca         1 ZI3      -0.102000
     16 C19         94.1880    49.5930     8.0930 ca         1 ZI3       0.129000
     17 CL20        93.7030    48.1140     8.8970 cl         1 ZI3      -0.208000
     18 C23         94.3090    53.7340     5.0880 cy         1 ZI3       0.143600
     19 O24         95.1400    53.3760     3.9590 oq         1 ZI3      -0.456000
     20 C25         96.2450    53.0320     4.8350 cy         1 ZI3       0.143600
     21 O26         97.8540    53.2900     7.3340 o          1 ZI3      -0.584100
     22 C27         97.2840    56.6530     7.9830 ca         1 ZI3      -0.101000
     23 C29         98.1280    57.5130    10.0640 ca         1 ZI3      -0.107000
     24 C30         98.0230    53.7750    10.4180 c6         1 ZI3      -0.036100
     25 C31         99.4350    53.7720    11.0200 c6         1 ZI3      -0.089400
     26 C32         99.5740    54.8630    12.0910 c6         1 ZI3       0.099000
     27 C33         96.7490    57.3130    12.8800 c3         1 ZI3      -0.153400
     28 C34         95.5570    56.4010    12.5600 c3         1 ZI3      -0.086100
     29 H2          94.4850    50.6610     9.9320 ha         1 ZI3       0.132000
     30 H3          95.1680    52.7330     8.8070 ha         1 ZI3       0.122000
     31 H4          97.6290    58.7350     8.3730 ha         1 ZI3       0.123000
     32 H5          95.1970    54.9790     7.2710 hn         1 ZI3       0.325500
     33 H6          93.9640    48.7640     6.1240 ha         1 ZI3       0.132000
     34 H7          94.1390    54.8120     5.1440 h1         1 ZI3       0.067700
     35 H8          93.3610    53.1980     5.0840 h1         1 ZI3       0.067700
     36 H9          96.6130    52.0240     4.6510 h1         1 ZI3       0.067700
     37 H10         97.0580    53.7540     4.7600 h1         1 ZI3       0.067700
     38 H11         96.9370    56.8190     6.9710 ha         1 ZI3       0.120000
     39 H12         98.4610    58.3420    10.6730 ha         1 ZI3       0.127000
     40 H13         97.2860    53.6390    11.2180 hc         1 ZI3       0.066200
     41 H14         97.8980    52.9670     9.7050 hc         1 ZI3       0.066200
     42 H15         99.6620    52.8050    11.4710 hc         1 ZI3       0.058200
     43 H16        100.1530    53.9320    10.2130 hc         1 ZI3       0.058200
     44 H17         99.3900    54.4520    13.0790 h1         1 ZI3       0.062700
     45 H18        100.5810    55.2860    12.0900 h1         1 ZI3       0.062700
     46 H19         96.5980    57.8030    13.8410 hc         1 ZI3       0.067200
     47 H20         96.8330    58.0900    12.1250 hc         1 ZI3       0.067200
     48 H21         94.6340    56.9810    12.5640 hc         1 ZI3       0.041033
     49 H22         95.6610    55.9370    11.5790 hc         1 ZI3       0.041033
     50 H23         95.4650    55.6070    13.3030 hc         1 ZI3       0.041033
     51 H1          94.6450    50.8340     4.9970 ha         1 ZI3       0.122000
@<TRIPOS>BOND
     1     1     9 2   
     2     1    10 1   
     3     1    27 1   
     4     2    10 1   
     5     2    11 ar  
     6     2    23 ar  
     7     3    12 1   
     8     3    13 1   
     9     3    21 2   
    10     4    13 1   
    11     4    14 1   
    12     4    18 1   
    13     4    20 1   
    14     5    14 ar  
    15     5    15 ar  
    16     5    51 1   
    17     6     7 ar  
    18     6    16 ar  
    19     6    29 1   
    20     7    14 ar  
    21     7    30 1   
    22     8    22 ar  
    23     8    23 ar  
    24     8    31 1   
    25    10    26 1   
    26    11    12 ar  
    27    11    24 1   
    28    12    22 ar  
    29    13    32 1   
    30    15    16 ar  
    31    15    33 1   
    32    16    17 1   
    33    18    19 1   
    34    18    34 1   
    35    18    35 1   
    36    19    20 1   
    37    20    36 1   
    38    20    37 1   
    39    22    38 1   
    40    23    39 1   
    41    24    25 1   
    42    24    40 1   
    43    24    41 1   
    44    25    26 1   
    45    25    42 1   
    46    25    43 1   
    47    26    44 1   
    48    26    45 1   
    49    27    28 1   
    50    27    46 1   
    51    27    47 1   
    52    28    48 1   
    53    28    49 1   
    54    28    50 1   
@<TRIPOS>SUBSTRUCTURE
     1 ZI3         1 TEMP              0 ****  ****    0 ROOT
