@<TRIPOS>MOLECULE
ZI5
   68    67     1     0     0
SMALL
abcg2


@<TRIPOS>ATOM
      1 N1         146.9850   143.0890   195.1040 ns         1 ZI5      -0.502900
      2 C4         142.7820   144.7050   189.8410 c2         1 ZI5      -0.215200
      3 C5         146.7790   146.3070   191.9600 c2         1 ZI5      -0.217200
      4 C6         142.8010   143.2130   190.0140 c3         1 ZI5      -0.011000
      5 C7         147.9630   146.6010   191.0790 c3         1 ZI5       0.001700
      6 C8         149.1890   146.0030   191.7160 c2         1 ZI5      -0.206200
      7 C10        142.1290   142.3580   192.3000 c2         1 ZI5      -0.213200
      8 C13        149.5480   144.1030   190.0890 c3         1 ZI5      -0.039200
      9 C15        148.3530   143.1730   190.3170 c3         1 ZI5      -0.075400
     10 C17        144.7720   142.1290   195.1280 c3         1 ZI5      -0.153400
     11 C20        145.6740   143.3430   195.0380 c          1 ZI5       0.602100
     12 C21        148.0750   144.0600   195.0030 c3         1 ZI5       0.068700
     13 C22        147.9890   145.1980   196.0260 c3         1 ZI5       0.158600
     14 C24        148.1380   148.1130   190.9050 c3         1 ZI5      -0.080100
     15 C1         145.2300   145.1810   190.2800 c3         1 ZI5      -0.014000
     16 O1         145.2060   144.4810   194.9680 o          1 ZI5      -0.629100
     17 C2         143.8120   145.5420   189.9520 c2         1 ZI5      -0.209200
     18 O2         147.0990   146.2330   195.7000 oh         1 ZI5      -0.678000
     19 C3         145.6370   145.7080   191.6270 c2         1 ZI5      -0.218200
     20 C9         141.8280   142.7760   191.0720 c2         1 ZI5      -0.213200
     21 C11        149.8740   144.9410   191.2950 c2         1 ZI5      -0.226200
     22 C12        143.4950   142.2390   192.9150 c3         1 ZI5      -0.044200
     23 C14        143.4250   142.2950   194.4400 c3         1 ZI5      -0.062400
     24 C16        148.5640   142.1420   191.4190 c3         1 ZI5      -0.072400
     25 C18        147.2820   141.4280   191.8420 c3         1 ZI5      -0.076400
     26 C19        146.5880   140.6680   190.7210 c3         1 ZI5      -0.090100
     27 C23        149.3830   143.3040   195.1950 c3         1 ZI5      -0.109100
     28 HN1        147.2570   142.1180   195.1250 hn         1 ZI5       0.310500
     29 HC4        141.8100   145.1290   189.6080 ha         1 ZI5       0.167000
     30 HC5        146.9000   146.6090   192.9980 ha         1 ZI5       0.184000
     31 H6_2       142.5090   142.7470   189.0660 hc         1 ZI5       0.047700
     32 H6_1       143.8040   142.8480   190.2330 hc         1 ZI5       0.047700
     33 HC7        147.8100   146.1590   190.0920 hc         1 ZI5       0.051700
     34 HC8        149.5180   146.5000   192.6270 ha         1 ZI5       0.169000
     35 HC10       141.3020   142.0600   192.9400 ha         1 ZI5       0.165000
     36 H131       149.3260   144.7450   189.2320 hc         1 ZI5       0.042200
     37 H132       150.4230   143.5130   189.8070 hc         1 ZI5       0.042200
     38 H152       148.1100   142.6730   189.3760 hc         1 ZI5       0.043200
     39 H151       147.4860   143.7860   190.5710 hc         1 ZI5       0.043200
     40 H172       144.6090   141.9480   196.1960 hc         1 ZI5       0.056200
     41 H171       145.2860   141.2420   194.7480 hc         1 ZI5       0.056200
     42 HC21       148.0680   144.4970   193.9970 h1         1 ZI5       0.072700
     43 H221       147.7730   144.7550   197.0100 h1         1 ZI5       0.038200
     44 H222       148.9820   145.6490   196.0970 h1         1 ZI5       0.038200
     45 H241       147.2590   148.5550   190.4360 hc         1 ZI5       0.035700
     46 H243       148.2850   148.6030   191.8700 hc         1 ZI5       0.035700
     47 H242       149.0040   148.3360   190.2810 hc         1 ZI5       0.035700
     48 H1_1       145.3510   144.0950   190.2730 hc         1 ZI5       0.047200
     49 H1_2       145.8930   145.5630   189.4990 hc         1 ZI5       0.047200
     50 HC2        143.6220   146.6030   189.8130 ha         1 ZI5       0.171000
     51 HO2        146.2690   145.8000   195.4280 ho         1 ZI5       0.484000
     52 HC3        144.9060   145.5540   192.4150 ha         1 ZI5       0.186000
     53 HC9        140.7800   142.8170   190.7920 ha         1 ZI5       0.168000
     54 HC11       150.7300   144.6320   191.8870 ha         1 ZI5       0.163000
     55 H122       143.9560   141.2880   192.6220 hc         1 ZI5       0.049200
     56 H121       144.1590   143.0220   192.5360 hc         1 ZI5       0.049200
     57 H142       142.9580   143.2290   194.7580 hc         1 ZI5       0.054200
     58 H141       142.7690   141.4940   194.7880 hc         1 ZI5       0.054200
     59 H161       149.3090   141.4050   191.0980 hc         1 ZI5       0.036200
     60 H162       148.9850   142.6370   192.2980 hc         1 ZI5       0.036200
     61 H181       147.5140   140.7360   192.6560 hc         1 ZI5       0.032200
     62 H182       146.5900   142.1640   192.2630 hc         1 ZI5       0.032200
     63 H192       145.7310   140.1080   191.0990 hc         1 ZI5       0.032367
     64 H193       146.2160   141.3380   189.9440 hc         1 ZI5       0.032367
     65 H191       147.2640   139.9540   190.2460 hc         1 ZI5       0.032367
     66 H232       150.2290   143.9630   195.0060 hc         1 ZI5       0.044367
     67 H233       149.4700   142.9230   196.2150 hc         1 ZI5       0.044367
     68 H231       149.4610   142.4600   194.5100 hc         1 ZI5       0.044367
@<TRIPOS>BOND
     1     1    11 1   
     2     1    12 1   
     3     1    28 1   
     4     2     4 1   
     5     2    17 2   
     6     2    29 1   
     7     3     5 1   
     8     3    19 2   
     9     3    30 1   
    10     4    20 1   
    11     4    31 1   
    12     4    32 1   
    13     5     6 1   
    14     5    14 1   
    15     5    33 1   
    16     6    21 2   
    17     6    34 1   
    18     7    20 2   
    19     7    22 1   
    20     7    35 1   
    21     8     9 1   
    22     8    21 1   
    23     8    36 1   
    24     8    37 1   
    25     9    24 1   
    26     9    38 1   
    27     9    39 1   
    28    10    11 1   
    29    10    23 1   
    30    10    40 1   
    31    10    41 1   
    32    11    16 2   
    33    12    13 1   
    34    12    27 1   
    35    12    42 1   
    36    13    18 1   
    37    13    43 1   
    38    13    44 1   
    39    14    45 1   
    40    14    46 1   
    41    14    47 1   
    42    15    17 1   
    43    15    19 1   
    44    15    48 1   
    45    15    49 1   
    46    17    50 1   
    47    18    51 1   
    48    19    52 1   
    49    20    53 1   
    50    21    54 1   
    51    22    23 1   
    52    22    55 1   
    53    22    56 1   
    54    23    57 1   
    55    23    58 1   
    56    24    25 1   
    57    24    59 1   
    58    24    60 1   
    59    25    26 1   
    60    25    61 1   
    61    25    62 1   
    62    26    63 1   
    63    26    64 1   
    64    26    65 1   
    65    27    66 1   
    66    27    67 1   
    67    27    68 1   
@<TRIPOS>SUBSTRUCTURE
     1 ZI5         1 TEMP              0 ****  ****    0 ROOT
