@<TRIPOS>MOLECULE
ZI5
   68    67     1     0     0
SMALL
No Charge or Current Charge


@<TRIPOS>ATOM
      1 N1         146.2950   143.4560   195.2620 ns         1 ZI5      -0.502900
      2 C4         143.1340   144.4890   190.9060 c2         1 ZI5      -0.215200
      3 C5         147.1150   146.8650   192.1740 c2         1 ZI5      -0.217200
      4 C6         143.8520   143.2130   190.5080 c3         1 ZI5      -0.011000
      5 C7         148.2020   146.7070   191.1260 c3         1 ZI5       0.001700
      6 C8         149.3220   145.8310   191.6660 c2         1 ZI5      -0.206200
      7 C10        143.1120   141.3450   192.1000 c2         1 ZI5      -0.213200
      8 C13        149.2940   143.9900   189.8790 c3         1 ZI5      -0.039200
      9 C15        148.1190   143.0280   190.1610 c3         1 ZI5      -0.075400
     10 C17        143.9530   142.8210   195.6470 c3         1 ZI5      -0.153400
     11 C20        144.9900   143.8910   195.2920 c          1 ZI5       0.602100
     12 C21        147.4560   144.2480   194.8270 c3         1 ZI5       0.068700
     13 C22        147.8380   145.3820   195.8210 c3         1 ZI5       0.158600
     14 C24        148.7440   148.0800   190.6890 c3         1 ZI5      -0.080100
     15 C1         145.1200   146.1040   190.7660 c3         1 ZI5      -0.014000
     16 O1         144.6920   145.0580   195.0850 o          1 ZI5      -0.629100
     17 C2         143.6780   145.7130   191.0320 c2         1 ZI5      -0.209200
     18 O2         146.8300   146.4000   195.8510 oh         1 ZI5      -0.678000
     19 C3         145.8020   146.6140   192.0220 c2         1 ZI5      -0.218200
     20 C9         143.0590   141.9870   190.9190 c2         1 ZI5      -0.213200
     21 C11        149.7850   144.6820   191.1390 c2         1 ZI5      -0.226200
     22 C12        143.9600   141.7150   193.3030 c3         1 ZI5      -0.044200
     23 C14        143.1230   142.3890   194.4130 c3         1 ZI5      -0.062400
     24 C16        148.5450   141.7180   190.8670 c3         1 ZI5      -0.072400
     25 C18        147.3640   140.8540   191.3660 c3         1 ZI5      -0.076400
     26 C19        146.4490   140.3120   190.2490 c3         1 ZI5      -0.090100
     27 C23        148.6430   143.3000   194.5760 c3         1 ZI5      -0.109100
     28 HN1        146.4430   142.4760   195.4760 hn         1 ZI5       0.310500
     29 HC4        142.0720   144.3510   191.1190 ha         1 ZI5       0.167000
     30 HC5        147.4810   147.2310   193.1360 ha         1 ZI5       0.184000
     31 H6_2       144.0030   143.1990   189.4220 hc         1 ZI5       0.047700
     32 H6_1       144.8570   143.1870   190.9440 hc         1 ZI5       0.047700
     33 HC7        147.7730   146.2500   190.2290 hc         1 ZI5       0.051700
     34 HC8        149.7740   146.2160   192.5820 ha         1 ZI5       0.169000
     35 HC10       142.4880   140.4630   192.2590 ha         1 ZI5       0.165000
     36 H131       148.9710   144.7290   189.1370 hc         1 ZI5       0.042200
     37 H132       150.1150   143.4380   189.4040 hc         1 ZI5       0.042200
     38 H152       147.6340   142.7800   189.2090 hc         1 ZI5       0.043200
     39 H151       147.3720   143.5480   190.7730 hc         1 ZI5       0.043200
     40 H172       143.2640   143.2380   196.3910 hc         1 ZI5       0.056200
     41 H171       144.4480   141.9340   196.0600 hc         1 ZI5       0.056200
     42 HC21       147.2030   144.7090   193.8620 h1         1 ZI5       0.072700
     43 H221       147.9770   144.9500   196.8210 h1         1 ZI5       0.038200
     44 H222       148.7970   145.8210   195.5130 h1         1 ZI5       0.038200
     45 H241       147.9370   148.7000   190.2790 hc         1 ZI5       0.035700
     46 H243       149.1900   148.6130   191.5380 hc         1 ZI5       0.035700
     47 H242       149.5120   147.9620   189.9150 hc         1 ZI5       0.035700
     48 H1_1       145.6830   145.2640   190.3450 hc         1 ZI5       0.047200
     49 H1_2       145.1410   146.8890   190.0000 hc         1 ZI5       0.047200
     50 HC2        143.0460   146.5510   191.3340 ha         1 ZI5       0.171000
     51 HO2        145.9860   145.9490   195.5660 ho         1 ZI5       0.484000
     52 HC3        145.1270   146.7710   192.8660 ha         1 ZI5       0.186000
     53 HC9        142.3960   141.6140   190.1350 ha         1 ZI5       0.168000
     54 HC11       150.6020   144.1570   191.6360 ha         1 ZI5       0.163000
     55 H122       144.4450   140.8170   193.7050 hc         1 ZI5       0.049200
     56 H121       144.7700   142.3920   193.0120 hc         1 ZI5       0.049200
     57 H142       142.6150   143.2680   193.9950 hc         1 ZI5       0.054200
     58 H141       142.3370   141.6960   194.7370 hc         1 ZI5       0.054200
     59 H161       149.1660   141.1250   190.1840 hc         1 ZI5       0.036200
     60 H162       149.1800   141.9630   191.7260 hc         1 ZI5       0.036200
     61 H181       147.7670   140.0040   191.9300 hc         1 ZI5       0.032200
     62 H182       146.7630   141.4390   192.0720 hc         1 ZI5       0.032200
     63 H192       145.6660   139.6740   190.6760 hc         1 ZI5       0.032367
     64 H193       145.9580   141.1290   189.7080 hc         1 ZI5       0.032367
     65 H191       147.0240   139.7160   189.5310 hc         1 ZI5       0.032367
     66 H232       149.4920   143.8470   194.1500 hc         1 ZI5       0.044367
     67 H233       148.9700   142.8270   195.5100 hc         1 ZI5       0.044367
     68 H231       148.3600   142.5100   193.8720 hc         1 ZI5       0.044367
@<TRIPOS>BOND
     1     1    11 1   
     2     1    12 1   
     3     1    28 1   
     4     2     4 1   
     5     2    17 2   
     6     2    29 1   
     7     3     5 1   
     8     3    19 2   
     9     3    30 1   
    10     4    20 1   
    11     4    31 1   
    12     4    32 1   
    13     5     6 1   
    14     5    14 1   
    15     5    33 1   
    16     6    21 2   
    17     6    34 1   
    18     7    20 2   
    19     7    22 1   
    20     7    35 1   
    21     8     9 1   
    22     8    21 1   
    23     8    36 1   
    24     8    37 1   
    25     9    24 1   
    26     9    38 1   
    27     9    39 1   
    28    10    11 1   
    29    10    23 1   
    30    10    40 1   
    31    10    41 1   
    32    11    16 2   
    33    12    13 1   
    34    12    27 1   
    35    12    42 1   
    36    13    18 1   
    37    13    43 1   
    38    13    44 1   
    39    14    45 1   
    40    14    46 1   
    41    14    47 1   
    42    15    17 1   
    43    15    19 1   
    44    15    48 1   
    45    15    49 1   
    46    17    50 1   
    47    18    51 1   
    48    19    52 1   
    49    20    53 1   
    50    21    54 1   
    51    22    23 1   
    52    22    55 1   
    53    22    56 1   
    54    23    57 1   
    55    23    58 1   
    56    24    25 1   
    57    24    59 1   
    58    24    60 1   
    59    25    26 1   
    60    25    61 1   
    61    25    62 1   
    62    26    63 1   
    63    26    64 1   
    64    26    65 1   
    65    27    66 1   
    66    27    67 1   
    67    27    68 1   
@<TRIPOS>SUBSTRUCTURE
     1 ZI5         1 TEMP              0 ****  ****    0 ROOT
