@<TRIPOS>MOLECULE
ZI6
   39    41     1     0     0
SMALL
bcc


@<TRIPOS>ATOM
      1 F4           7.2810    -2.2180     0.9640 f          1 ZI6      -0.234300
      2 C18          6.9350    -1.8000    -0.2640 c3         1 ZI6       0.720200
      3 F5           7.8520    -0.9000    -0.6350 f          1 ZI6      -0.234300
      4 F3           7.0660    -2.8530    -1.0790 f          1 ZI6      -0.234300
      5 C15          5.5480    -1.2390    -0.2840 ca         1 ZI6      -0.187300
      6 C14          5.3370     0.1110    -0.0350 ca         1 ZI6      -0.083500
      7 C13          4.0500     0.6210    -0.0130 ca         1 ZI6      -0.107500
      8 C16          4.4620    -2.0760    -0.5120 ca         1 ZI6      -0.083500
      9 C17          3.1770    -1.5640    -0.4900 ca         1 ZI6      -0.107500
     10 C12          2.9540    -0.2120    -0.2320 ca         1 ZI6      -0.089500
     11 C10          1.5830     0.2910    -0.2210 cc         1 ZI6       0.328500
     12 N2           0.5980    -0.2940    -0.9920 nc         1 ZI6      -0.662000
     13 C11          0.9980     1.2990     0.4760 cd         1 ZI6       0.192600
     14 BR1          1.5760     2.4660     1.7690 br         1 ZI6      -0.050200
     15 O3          -0.3050     1.3550     0.1380 os         1 ZI6      -0.299800
     16 C9          -0.4750     0.3650    -0.7510 cd         1 ZI6       0.491700
     17 C8          -1.8120     0.1820    -1.3640 c3         1 ZI6       0.119100
     18 O2          -2.7370    -0.0150    -0.3140 os         1 ZI6      -0.291900
     19 C4          -4.0340    -0.1610    -0.6450 ca         1 ZI6       0.078100
     20 C3          -4.9290    -0.2870     0.4160 ca         1 ZI6       0.178900
     21 F2          -4.4480    -0.2600     1.6610 f          1 ZI6      -0.107900
     22 C5          -4.5440    -0.2010    -1.9350 ca         1 ZI6      -0.155000
     23 C6          -5.9070    -0.3670    -2.1570 ca         1 ZI6      -0.153000
     24 C7          -6.7500    -0.4970    -1.0780 ca         1 ZI6       0.154900
     25 F1          -8.0670    -0.6480    -1.2750 f          1 ZI6      -0.129900
     26 C2          -6.2830    -0.4650     0.2280 ca         1 ZI6      -0.215600
     27 C1          -7.2110    -0.5340     1.4100 c          1 ZI6       0.702700
     28 O1          -7.4050     0.4470     2.1050 o          1 ZI6      -0.571100
     29 N1          -7.7710    -1.7290     1.6010 nt         1 ZI6      -0.660000
     30 H1           6.1660     0.7860     0.1310 ha         1 ZI6       0.150500
     31 H2           3.9180     1.6820     0.1440 ha         1 ZI6       0.150000
     32 H3           4.6010    -3.1310    -0.7070 ha         1 ZI6       0.150500
     33 H4           2.3400    -2.2250    -0.6700 ha         1 ZI6       0.150000
     34 H5          -2.0760     1.0650    -1.9580 h1         1 ZI6       0.071200
     35 H6          -1.7590    -0.6790    -2.0340 h1         1 ZI6       0.071200
     36 H7          -3.8950    -0.1100    -2.7940 ha         1 ZI6       0.145000
     37 H8          -6.2960    -0.3930    -3.1650 ha         1 ZI6       0.160000
     38 H9          -7.5460    -2.5220     1.0250 hn         1 ZI6       0.321000
     39 H10         -8.4130    -1.8750     2.3650 hn         1 ZI6       0.321000
@<TRIPOS>BOND
     1     1     2 1   
     2     2     3 1   
     3     2     4 1   
     4     2     5 1   
     5     5     6 ar  
     6     5     8 ar  
     7     6     7 ar  
     8     6    30 1   
     9     7    10 ar  
    10     7    31 1   
    11     8     9 ar  
    12     8    32 1   
    13     9    10 ar  
    14     9    33 1   
    15    10    11 1   
    16    11    12 1   
    17    11    13 2   
    18    12    16 2   
    19    13    14 1   
    20    13    15 1   
    21    15    16 1   
    22    16    17 1   
    23    17    18 1   
    24    17    34 1   
    25    17    35 1   
    26    18    19 1   
    27    19    20 ar  
    28    19    22 ar  
    29    20    21 1   
    30    20    26 ar  
    31    22    23 ar  
    32    22    36 1   
    33    23    24 ar  
    34    23    37 1   
    35    24    25 1   
    36    24    26 ar  
    37    26    27 1   
    38    27    28 2   
    39    27    29 1   
    40    29    38 1   
    41    29    39 1   
@<TRIPOS>SUBSTRUCTURE
     1 ZI6         1 TEMP              0 ****  ****    0 ROOT
