@<TRIPOS>MOLECULE
ZI6
   39    41     1     0     0
SMALL
No Charge or Current Charge


@<TRIPOS>ATOM
      1 F4           7.4020    -1.9670     1.2460 f          1 ZI6      -0.113000
      2 C18          7.0010    -1.8910    -0.0430 c3         1 ZI6       0.356300
      3 F5           7.9270    -1.1570    -0.7020 f          1 ZI6      -0.113000
      4 F3           7.0690    -3.1430    -0.5520 f          1 ZI6      -0.113000
      5 C15          5.5940    -1.2900    -0.1540 ca         1 ZI6      -0.187300
      6 C14          5.4160     0.1050    -0.2650 ca         1 ZI6      -0.065500
      7 C13          4.1270     0.6570    -0.3570 ca         1 ZI6      -0.089500
      8 C16          4.4530    -2.1200    -0.1370 ca         1 ZI6      -0.065500
      9 C17          3.1650    -1.5650    -0.2290 ca         1 ZI6      -0.089500
     10 C12          2.9840    -0.1690    -0.3110 ca         1 ZI6      -0.089500
     11 C10          1.6320     0.3840    -0.4550 cc         1 ZI6       0.328500
     12 N2           0.6140    -0.2010    -1.1500 nc         1 ZI6      -0.662000
     13 C11          1.1810     1.5090     0.1830 cd         1 ZI6       0.148200
     14 Br1          2.0410     2.6540     1.4210 br         1 ZI6      -0.050200
     15 O3          -0.1300     1.7060    -0.1110 os         1 ZI6      -0.211000
     16 C9          -0.4020     0.6290    -0.9190 cd         1 ZI6       0.447300
     17 C8          -1.7990     0.4430    -1.4680 c3         1 ZI6       0.142300
     18 O2          -2.7000     0.0760    -0.3990 os         1 ZI6      -0.315100
     19 C4          -4.0500    -0.1550    -0.6070 ca         1 ZI6       0.078100
     20 C3          -4.8530    -0.5090     0.5020 ca         1 ZI6       0.214000
     21 F2          -4.2460    -0.6210     1.7080 f          1 ZI6      -0.143000
     22 C5          -4.6340    -0.0500    -1.8850 ca         1 ZI6      -0.137000
     23 C6          -6.0050    -0.2980    -2.0400 ca         1 ZI6      -0.135000
     24 C7          -6.8010    -0.6510    -0.9390 ca         1 ZI6       0.190000
     25 F1          -8.1170    -0.8500    -1.1710 f          1 ZI6      -0.165000
     26 C2          -6.2430    -0.7660     0.3610 ca         1 ZI6      -0.215600
     27 C1          -7.0760    -1.1400     1.5710 c          1 ZI6       0.635700
     28 O1          -6.7030    -0.9770     2.7200 o          1 ZI6      -0.571100
     29 N1          -8.3060    -1.6610     1.3830 nt         1 ZI6      -0.593000
     30 H1           6.2780     0.7700    -0.2870 ha         1 ZI6       0.132500
     31 H2           4.0250     1.7330    -0.4780 ha         1 ZI6       0.132000
     32 H3           4.5570    -3.2000    -0.0530 ha         1 ZI6       0.132500
     33 H4           2.3010    -2.2260    -0.2240 ha         1 ZI6       0.132000
     34 H5          -2.1140     1.3840    -1.9360 h1         1 ZI6       0.071200
     35 H6          -1.7740    -0.3360    -2.2400 h1         1 ZI6       0.071200
     36 H7          -4.0500     0.2200    -2.7600 ha         1 ZI6       0.127000
     37 H8          -6.4610    -0.2140    -3.0240 ha         1 ZI6       0.142000
     38 H9          -8.6580    -1.7950     0.4470 hn         1 ZI6       0.321000
     39 H10         -8.8670    -1.9030     2.1850 hn         1 ZI6       0.321000
@<TRIPOS>BOND
     1     1     2 1   
     2     2     3 1   
     3     2     4 1   
     4     2     5 1   
     5     5     6 ar  
     6     5     8 ar  
     7     6     7 ar  
     8     6    30 1   
     9     7    10 ar  
    10     7    31 1   
    11     8     9 ar  
    12     8    32 1   
    13     9    10 ar  
    14     9    33 1   
    15    10    11 1   
    16    11    12 1   
    17    11    13 2   
    18    12    16 2   
    19    13    14 1   
    20    13    15 1   
    21    15    16 1   
    22    16    17 1   
    23    17    18 1   
    24    17    34 1   
    25    17    35 1   
    26    18    19 1   
    27    19    20 ar  
    28    19    22 ar  
    29    20    21 1   
    30    20    26 ar  
    31    22    23 ar  
    32    22    36 1   
    33    23    24 ar  
    34    23    37 1   
    35    24    25 1   
    36    24    26 ar  
    37    26    27 1   
    38    27    28 2   
    39    27    29 1   
    40    29    38 1   
    41    29    39 1   
@<TRIPOS>SUBSTRUCTURE
     1 ZI6         1 TEMP              0 ****  ****    0 ROOT
