@<TRIPOS>MOLECULE
ZI7
   34    36     1     0     0
SMALL
bcc


@<TRIPOS>ATOM
      1 F5          -7.2950     0.7640     0.5460 f          1 ZI7      -0.230300
      2 C15         -6.5510    -0.1050    -0.1430 c3         1 ZI7       0.731200
      3 F3          -6.9530    -1.3330     0.2140 f          1 ZI7      -0.230300
      4 F4          -6.8620     0.0410    -1.4360 f          1 ZI7      -0.230300
      5 C12         -5.0860     0.0820     0.0990 ca         1 ZI7      -0.327600
      6 C11         -4.6330     0.7370     1.2490 ca         1 ZI7       0.461200
      7 N3          -3.3520     0.8970     1.5360 nb         1 ZI7      -0.622000
      8 C10         -2.4920     0.3970     0.6720 ca         1 ZI7       0.425600
      9 S1          -0.7660     0.4780     0.8200 ss         1 ZI7      -0.048500
     10 C13         -4.1740    -0.4400    -0.8040 ca         1 ZI7       0.020000
     11 C14         -2.8280    -0.2780    -0.5120 ca         1 ZI7      -0.030900
     12 N2          -1.7640    -0.7070    -1.2600 nc         1 ZI7      -0.517100
     13 C9          -0.6590    -0.3880    -0.6910 cd         1 ZI7       0.360200
     14 C8           0.6800    -0.7410    -1.2430 c3         1 ZI7       0.118100
     15 O2           1.6310    -0.0840    -0.4430 os         1 ZI7      -0.314900
     16 C4           2.9370    -0.3280    -0.6630 ca         1 ZI7       0.081100
     17 C5           3.4550    -1.0950    -1.6950 ca         1 ZI7      -0.150000
     18 C6           4.8290    -1.2760    -1.8220 ca         1 ZI7      -0.154000
     19 C3           3.8290     0.2560     0.2360 ca         1 ZI7       0.162900
     20 F2           3.3330     0.9850     1.2400 f          1 ZI7      -0.116900
     21 C2           5.1930     0.0940     0.1340 ca         1 ZI7      -0.213600
     22 C7           5.6700    -0.6880    -0.9080 ca         1 ZI7       0.169900
     23 F1           6.9950    -0.8450    -1.0210 f          1 ZI7      -0.122900
     24 C1           6.1310     0.6650     1.1630 c          1 ZI7       0.702700
     25 O1           6.6880    -0.0620     1.9650 o          1 ZI7      -0.570100
     26 N1           6.2800     1.9890     1.1000 nt         1 ZI7      -0.660000
     27 H1          -5.3320     1.1500     1.9660 h4         1 ZI7       0.043100
     28 H2          -4.4780    -0.9530    -1.7070 ha         1 ZI7       0.171000
     29 H3           0.8070    -1.8300    -1.2080 h1         1 ZI7       0.070700
     30 H4           0.7360    -0.4270    -2.2910 h1         1 ZI7       0.070700
     31 H5           2.8060    -1.5650    -2.4210 ha         1 ZI7       0.148000
     32 H6           5.2280    -1.8700    -2.6330 ha         1 ZI7       0.161000
     33 H7           5.8410     2.5410     0.3820 hn         1 ZI7       0.321000
     34 H8           6.8930     2.4650     1.7430 hn         1 ZI7       0.321000
@<TRIPOS>BOND
     1     1     2 1   
     2     2     3 1   
     3     2     4 1   
     4     2     5 1   
     5     5     6 ar  
     6     5    10 ar  
     7     6     7 ar  
     8     6    27 1   
     9     7     8 ar  
    10     8     9 1   
    11     8    11 ar  
    12     9    13 1   
    13    10    11 ar  
    14    10    28 1   
    15    11    12 1   
    16    12    13 2   
    17    13    14 1   
    18    14    15 1   
    19    14    29 1   
    20    14    30 1   
    21    15    16 1   
    22    16    17 ar  
    23    16    19 ar  
    24    17    18 ar  
    25    17    31 1   
    26    18    22 ar  
    27    18    32 1   
    28    19    20 1   
    29    19    21 ar  
    30    21    22 ar  
    31    21    24 1   
    32    22    23 1   
    33    24    25 2   
    34    24    26 1   
    35    26    33 1   
    36    26    34 1   
@<TRIPOS>SUBSTRUCTURE
     1 ZI7         1 TEMP              0 ****  ****    0 ROOT
