@<TRIPOS>MOLECULE
ZI7
   34    36     1     0     0
SMALL
No Charge or Current Charge


@<TRIPOS>ATOM
      1 F5          -6.5560     2.1490    -0.3060 f          1 ZI7      -0.109000
      2 C15         -6.4170     0.8200    -0.5110 c3         1 ZI7       0.367300
      3 F3          -7.4320     0.2100     0.1430 f          1 ZI7      -0.109000
      4 F4          -6.6190     0.6000    -1.8300 f          1 ZI7      -0.109000
      5 C12         -5.0570     0.3270    -0.0360 ca         1 ZI7      -0.262300
      6 C11         -4.8400     0.0990     1.3390 ca         1 ZI7       0.395900
      7 N3          -3.6580    -0.3300     1.8390 nb         1 ZI7      -0.622000
      8 C10         -2.6640    -0.5340     0.9490 ca         1 ZI7       0.360300
      9 S1          -1.0680    -1.0890     1.4080 ss         1 ZI7      -0.048500
     10 C13         -3.9890     0.1090    -0.9380 ca         1 ZI7       0.038000
     11 C14         -2.7620    -0.3360    -0.4210 ca         1 ZI7       0.034400
     12 N2          -1.6320    -0.5920    -1.1970 nc         1 ZI7      -0.517100
     13 C9          -0.6850    -0.9900    -0.3300 cd         1 ZI7       0.360200
     14 C8           0.6970    -1.3590    -0.8170 c3         1 ZI7       0.141300
     15 O2           1.6670    -0.4440    -0.2600 os         1 ZI7      -0.338100
     16 C4           3.0230    -0.5420    -0.5220 ca         1 ZI7       0.081100
     17 C5           3.5470    -1.5470    -1.3600 ca         1 ZI7      -0.132000
     18 C6           4.9300    -1.6050    -1.5870 ca         1 ZI7      -0.136000
     19 C3           3.8960     0.3950     0.0780 ca         1 ZI7       0.198000
     20 F2           3.3480     1.3250     0.8960 f          1 ZI7      -0.152000
     21 C2           5.3000     0.3490    -0.1450 ca         1 ZI7      -0.213600
     22 C7           5.7940    -0.6750    -0.9900 ca         1 ZI7       0.205000
     23 F1           7.1120    -0.7810    -1.2750 f          1 ZI7      -0.158000
     24 C1           6.2570     1.3400     0.4870 c          1 ZI7       0.635700
     25 O1           7.4570     1.1490     0.5750 o          1 ZI7      -0.570100
     26 N1           5.7680     2.4850     1.0050 nt         1 ZI7      -0.593000
     27 H1          -5.6340     0.2670     2.0670 h4         1 ZI7       0.043100
     28 H2          -4.0970     0.2790    -2.0070 ha         1 ZI7       0.153000
     29 H3           0.9110    -2.3890    -0.5050 h1         1 ZI7       0.070700
     30 H4           0.7130    -1.3200    -1.9130 h1         1 ZI7       0.070700
     31 H5           2.9080    -2.2830    -1.8390 ha         1 ZI7       0.130000
     32 H6           5.3400    -2.3760    -2.2350 ha         1 ZI7       0.143000
     33 H7           4.7770     2.6730     0.9680 hn         1 ZI7       0.321000
     34 H8           6.4020     3.1420     1.4350 hn         1 ZI7       0.321000
@<TRIPOS>BOND
     1     1     2 1   
     2     2     3 1   
     3     2     4 1   
     4     2     5 1   
     5     5     6 ar  
     6     5    10 ar  
     7     6     7 ar  
     8     6    27 1   
     9     7     8 ar  
    10     8     9 1   
    11     8    11 ar  
    12     9    13 1   
    13    10    11 ar  
    14    10    28 1   
    15    11    12 1   
    16    12    13 2   
    17    13    14 1   
    18    14    15 1   
    19    14    29 1   
    20    14    30 1   
    21    15    16 1   
    22    16    17 ar  
    23    16    19 ar  
    24    17    18 ar  
    25    17    31 1   
    26    18    22 ar  
    27    18    32 1   
    28    19    20 1   
    29    19    21 ar  
    30    21    22 ar  
    31    21    24 1   
    32    22    23 1   
    33    24    25 2   
    34    24    26 1   
    35    26    33 1   
    36    26    34 1   
@<TRIPOS>SUBSTRUCTURE
     1 ZI7         1 TEMP              0 ****  ****    0 ROOT
