@<TRIPOS>MOLECULE
ZI8
   47    50     1     0     0
SMALL
No Charge or Current Charge


@<TRIPOS>ATOM
      1 N1          96.2290    53.3570     6.9400 ns         1 ZI8      -0.505900
      2 C7          97.5300    58.6640    13.7570 c5         1 ZI8       0.150300
      3 C8          97.0160    58.1190    12.3780 c5         1 ZI8       0.229800
      4 C9          96.8210    56.2820    10.0250 ca         1 ZI8      -0.214500
      5 O1          97.0010    57.9540    14.8880 oh         1 ZI8      -0.657000
      6 C1          97.3860    54.1520     8.9610 ca         1 ZI8      -0.225600
      7 C5          99.1310    57.0180    12.9990 c5         1 ZI8       0.234800
      8 C6          99.0580    58.4440    13.6040 c5         1 ZI8      -0.128400
      9 C4          97.7950    56.0800    11.0190 ca         1 ZI8       0.384000
     10 C3          98.5630    54.9020    10.9720 ca         1 ZI8      -0.214500
     11 C2          98.3630    53.9500     9.9590 ca         1 ZI8      -0.013500
     12 C15         93.0300    49.5070     7.3530 ca         1 ZI8       0.128000
     13 C14         94.3980    49.1990     7.3080 ca         1 ZI8      -0.103000
     14 C13         95.3170    50.1470     6.8250 ca         1 ZI8      -0.086000
     15 C16         92.5800    50.7650     6.9260 ca         1 ZI8      -0.103000
     16 C17         93.4970    51.7150     6.4430 ca         1 ZI8      -0.086000
     17 C12         94.8750    51.4100     6.3700 ca         1 ZI8      -0.080300
     18 C11         95.8740    52.4640     5.8600 cy         1 ZI8       0.116700
     19 C19         95.4530    53.1450     4.5010 cy         1 ZI8       0.143100
     20 O2          96.1230    52.0470     3.7900 oq         1 ZI8      -0.460000
     21 C18         97.0340    51.9190     4.9360 cy         1 ZI8       0.143100
     22 C           97.1990    53.1030     7.8870 c          1 ZI8       0.620700
     23 O           97.8740    52.0840     7.8560 o          1 ZI8      -0.609100
     24 C10         96.6140    55.3360     9.0070 ca         1 ZI8      -0.013500
     25 N           97.9970    57.0410    12.0400 nh         1 ZI8      -0.834400
     26 H1          95.7180    54.2220     7.0530 hn         1 ZI8       0.319500
     27 H2          97.2960    59.7340    13.8550 h1         1 ZI8       0.053700
     28 H3          97.0290    58.9140    11.6190 h1         1 ZI8       0.060200
     29 H4          95.9880    57.7400    12.4600 h1         1 ZI8       0.060200
     30 H5          96.2160    57.1830    10.0260 ha         1 ZI8       0.114500
     31 H6          97.4000    58.3590    15.6900 ho         1 ZI8       0.444000
     32 H7          98.9860    56.2450    13.7680 h1         1 ZI8       0.052200
     33 H8         100.0990    56.8440    12.5070 h1         1 ZI8       0.052200
     34 H9          99.6030    58.5240    14.5500 hc         1 ZI8       0.061200
     35 H10         99.4920    59.1800    12.9170 hc         1 ZI8       0.061200
     36 H11         99.3200    54.7080    11.7240 ha         1 ZI8       0.114500
     37 H12         98.9750    53.0500     9.9560 ha         1 ZI8       0.118000
     38 H13         94.7460    48.2290     7.6520 ha         1 ZI8       0.130000
     39 H14         96.3750    49.8960     6.8190 ha         1 ZI8       0.123000
     40 H15         91.5210    51.0070     6.9740 ha         1 ZI8       0.130000
     41 H16         93.1320    52.6910     6.1340 ha         1 ZI8       0.123000
     42 H17         95.9380    54.1090     4.3020 h1         1 ZI8       0.065950
     43 H18         94.3800    53.1910     4.2850 h1         1 ZI8       0.065950
     44 H19         97.3570    50.8860     5.1030 h1         1 ZI8       0.065950
     45 H20         97.8970    52.5910     4.8430 h1         1 ZI8       0.065950
     46 H21         95.8480    55.5440     8.2640 ha         1 ZI8       0.118000
     47 Cl          91.8810    48.3210     7.9600 cl         1 ZI8      -0.215000
@<TRIPOS>BOND
     1     1    18 1   
     2     1    22 1   
     3     1    26 1   
     4     2     3 1   
     5     2     5 1   
     6     2     8 1   
     7     2    27 1   
     8     3    25 1   
     9     3    28 1   
    10     3    29 1   
    11     4     9 ar  
    12     4    24 ar  
    13     4    30 1   
    14     5    31 1   
    15     6    11 ar  
    16     6    22 1   
    17     6    24 ar  
    18     7     8 1   
    19     7    25 1   
    20     7    32 1   
    21     7    33 1   
    22     8    34 1   
    23     8    35 1   
    24     9    10 ar  
    25     9    25 1   
    26    10    11 ar  
    27    10    36 1   
    28    11    37 1   
    29    12    13 ar  
    30    12    15 ar  
    31    12    47 1   
    32    13    14 ar  
    33    13    38 1   
    34    14    17 ar  
    35    14    39 1   
    36    15    16 ar  
    37    15    40 1   
    38    16    17 ar  
    39    16    41 1   
    40    17    18 1   
    41    18    19 1   
    42    18    21 1   
    43    19    20 1   
    44    19    42 1   
    45    19    43 1   
    46    20    21 1   
    47    21    44 1   
    48    21    45 1   
    49    22    23 2   
    50    24    46 1   
@<TRIPOS>SUBSTRUCTURE
     1 ZI8         1 TEMP              0 ****  ****    0 ROOT
