@<TRIPOS>MOLECULE
ZI8
   47    50     1     0     0
SMALL
abcg2


@<TRIPOS>ATOM
      1 N1          96.1110    53.4090     7.0470 ns         1 ZI8      -0.505900
      2 C7          97.7090    59.0070    13.3590 c5         1 ZI8       0.150300
      3 C8          97.4570    58.4690    11.9570 c5         1 ZI8       0.229800
      4 C9          97.0450    56.5070     9.8540 ca         1 ZI8      -0.214500
      5 O1          96.5620    58.6850    14.1560 oh         1 ZI8      -0.657000
      6 C1          97.2340    54.2270     9.0360 ca         1 ZI8      -0.225600
      7 C5          98.7370    56.8390    13.2200 c5         1 ZI8       0.234800
      8 C6          98.9470    58.2320    13.8110 c5         1 ZI8      -0.128400
      9 C4          97.7300    56.1730    11.0460 ca         1 ZI8       0.384000
     10 C3          98.1640    54.8340    11.1960 ca         1 ZI8      -0.214500
     11 C2          97.9210    53.9000    10.2110 ca         1 ZI8      -0.013500
     12 C15         93.3640    49.1490     7.2310 ca         1 ZI8       0.128000
     13 C14         93.9550    49.1360     5.9750 ca         1 ZI8      -0.103000
     14 C13         94.7570    50.2050     5.5970 ca         1 ZI8      -0.086000
     15 C16         93.5570    50.2100     8.1010 ca         1 ZI8      -0.103000
     16 C17         94.3640    51.2720     7.7060 ca         1 ZI8      -0.086000
     17 C12         94.9790    51.2840     6.4570 ca         1 ZI8      -0.080300
     18 C11         95.8370    52.4500     6.0020 cy         1 ZI8       0.116700
     19 C19         95.3430    53.1170     4.6910 cy         1 ZI8       0.143100
     20 O2          96.4550    52.5770     3.9400 oq         1 ZI8      -0.460000
     21 C18         97.0760    52.0740     5.1520 cy         1 ZI8       0.143100
     22 C           97.0170    53.1650     8.0270 c          1 ZI8       0.620700
     23 O           97.6310    52.0910     8.0580 o          1 ZI8      -0.609100
     24 C10         96.8050    55.5530     8.8840 ca         1 ZI8      -0.013500
     25 N           97.9690    57.1020    12.0050 nh         1 ZI8      -0.834400
     26 H1          95.5350    54.2330     7.0880 hn         1 ZI8       0.319500
     27 H2          97.8700    60.0880    13.3540 h1         1 ZI8       0.053700
     28 H3          97.9870    59.0690    11.2090 h1         1 ZI8       0.060200
     29 H4          96.3920    58.4910    11.7200 h1         1 ZI8       0.060200
     30 H5          96.7170    57.5220     9.6860 ha         1 ZI8       0.114500
     31 H6          96.7540    58.9300    15.0700 ho         1 ZI8       0.444000
     32 H7          98.1770    56.1910    13.9030 h1         1 ZI8       0.052200
     33 H8          99.6810    56.3430    12.9860 h1         1 ZI8       0.052200
     34 H9          99.0550    58.2220    14.8960 hc         1 ZI8       0.061200
     35 H10         99.8380    58.6960    13.3820 hc         1 ZI8       0.061200
     36 H11         98.6830    54.5330    12.0940 ha         1 ZI8       0.114500
     37 H12         98.2610    52.8820    10.3460 ha         1 ZI8       0.118000
     38 H13         93.7920    48.3060     5.3020 ha         1 ZI8       0.130000
     39 H14         95.2070    50.1900     4.6130 ha         1 ZI8       0.123000
     40 H15         93.0890    50.2110     9.0760 ha         1 ZI8       0.130000
     41 H16         94.5120    52.0960     8.3880 ha         1 ZI8       0.123000
     42 H17         95.3620    54.2090     4.7210 h1         1 ZI8       0.065950
     43 H18         94.3840    52.7630     4.3120 h1         1 ZI8       0.065950
     44 H19         97.3090    51.0120     5.0810 h1         1 ZI8       0.065950
     45 H20         97.9680    52.6420     5.4140 h1         1 ZI8       0.065950
     46 H21         96.2990    55.8740     7.9820 ha         1 ZI8       0.118000
     47 CL          92.3550    47.8020     7.7210 cl         1 ZI8      -0.215000
@<TRIPOS>BOND
     1     1    18 1   
     2     1    22 1   
     3     1    26 1   
     4     2     3 1   
     5     2     5 1   
     6     2     8 1   
     7     2    27 1   
     8     3    25 1   
     9     3    28 1   
    10     3    29 1   
    11     4     9 ar  
    12     4    24 ar  
    13     4    30 1   
    14     5    31 1   
    15     6    11 ar  
    16     6    22 1   
    17     6    24 ar  
    18     7     8 1   
    19     7    25 1   
    20     7    32 1   
    21     7    33 1   
    22     8    34 1   
    23     8    35 1   
    24     9    10 ar  
    25     9    25 1   
    26    10    11 ar  
    27    10    36 1   
    28    11    37 1   
    29    12    13 ar  
    30    12    15 ar  
    31    12    47 1   
    32    13    14 ar  
    33    13    38 1   
    34    14    17 ar  
    35    14    39 1   
    36    15    16 ar  
    37    15    40 1   
    38    16    17 ar  
    39    16    41 1   
    40    17    18 1   
    41    18    19 1   
    42    18    21 1   
    43    19    20 1   
    44    19    42 1   
    45    19    43 1   
    46    20    21 1   
    47    21    44 1   
    48    21    45 1   
    49    22    23 2   
    50    24    46 1   
@<TRIPOS>SUBSTRUCTURE
     1 ZI8         1 TEMP              0 ****  ****    0 ROOT
