@<TRIPOS>MOLECULE
ZI9
   33    35     1     0     0
SMALL
No Charge or Current Charge


@<TRIPOS>ATOM
      1 F1         -17.7810   -12.2830    19.1130 f          1 ZI9      -0.156000
      2 C3         -16.9650   -11.2140    19.2690 ca         1 ZI9       0.189000
      3 C2         -17.4950    -9.9060    19.4480 ca         1 ZI9      -0.198600
      4 C1         -18.9840    -9.6240    19.4490 c          1 ZI9       0.629700
      5 N1         -19.8300   -10.5570    18.9660 nt         1 ZI9      -0.594000
      6 O1         -19.4720    -8.5960    19.8880 o          1 ZI9      -0.576100
      7 C4         -15.5710   -11.4520    19.2730 ca         1 ZI9       0.083100
      8 C5         -14.6800   -10.3760    19.4580 ca         1 ZI9      -0.130000
      9 C6         -15.1880    -9.0820    19.6380 ca         1 ZI9      -0.132000
     10 C7         -16.5710    -8.8470    19.6350 ca         1 ZI9       0.201000
     11 F2         -16.9830    -7.5690    19.7900 f          1 ZI9      -0.160000
     12 O2         -15.1210   -12.7500    19.0980 os         1 ZI9      -0.338100
     13 C8         -13.7190   -13.0960    19.0970 c3         1 ZI9       0.142300
     14 C9         -13.5760   -14.5840    18.8940 cc         1 ZI9       0.366200
     15 S1         -14.1420   -15.6870    20.1720 ss         1 ZI9      -0.082500
     16 C10        -13.6060   -16.9790    19.1180 ca         1 ZI9       0.353300
     17 C14        -13.0620   -16.4910    17.9390 ca         1 ZI9       0.042400
     18 N2         -13.0310   -15.1090    17.7840 nd         1 ZI9      -0.523100
     19 N3         -13.7170   -18.2870    19.4380 nb         1 ZI9      -0.622000
     20 C11        -13.2550   -19.1720    18.5180 ca         1 ZI9       0.367900
     21 C12        -12.6820   -18.7790    17.2830 ca         1 ZI9      -0.023000
     22 C13        -12.5830   -17.4050    16.9870 ca         1 ZI9       0.002000
     23 C15        -12.2090   -19.7600    16.3470 cg         1 ZI9      -0.137000
     24 C16        -11.8060   -20.5830    15.5490 c1         1 ZI9      -0.201000
     25 H1         -20.8220   -10.3740    18.9750 hn         1 ZI9       0.323000
     26 H2         -19.4690   -11.4280    18.6090 hn         1 ZI9       0.323000
     27 H3         -13.6030   -10.5200    19.4660 ha         1 ZI9       0.130000
     28 H4         -14.5050    -8.2470    19.7780 ha         1 ZI9       0.144000
     29 H5         -13.2500   -12.8260    20.0510 h1         1 ZI9       0.069200
     30 H6         -13.1900   -12.5720    18.2910 h1         1 ZI9       0.069200
     31 H7         -13.3460   -20.2260    18.7780 h4         1 ZI9       0.034100
     32 H8         -12.1510   -17.0580    16.0510 ha         1 ZI9       0.144000
     33 H9         -11.4480   -21.3040    14.8400 ha         1 ZI9       0.261000
@<TRIPOS>BOND
     1     1     2 1   
     2     2     3 ar  
     3     2     7 ar  
     4     3     4 1   
     5     3    10 ar  
     6     4     5 1   
     7     4     6 2   
     8     5    25 1   
     9     5    26 1   
    10     7     8 ar  
    11     7    12 1   
    12     8     9 ar  
    13     8    27 1   
    14     9    10 ar  
    15     9    28 1   
    16    10    11 1   
    17    12    13 1   
    18    13    14 1   
    19    13    29 1   
    20    13    30 1   
    21    14    15 1   
    22    14    18 2   
    23    15    16 1   
    24    16    17 ar  
    25    16    19 ar  
    26    17    18 1   
    27    17    22 ar  
    28    19    20 ar  
    29    20    21 ar  
    30    20    31 1   
    31    21    22 ar  
    32    21    23 1   
    33    22    32 1   
    34    23    24 3   
    35    24    33 1   
@<TRIPOS>SUBSTRUCTURE
     1 ZI9         1 TEMP              0 ****  ****    0 ROOT
