@<TRIPOS>MOLECULE
ZI9
   33    35     1     0     0
SMALL
abcg2


@<TRIPOS>ATOM
      1 F1         -17.7840   -12.3020    19.6490 f          1 ZI9      -0.156000
      2 C3         -16.9540   -11.2470    19.5210 ca         1 ZI9       0.189000
      3 C2         -17.4300    -9.9750    19.7890 ca         1 ZI9      -0.198600
      4 C1         -18.8370    -9.7320    20.2730 c          1 ZI9       0.629700
      5 N1         -19.8080   -10.0500    19.4050 nt         1 ZI9      -0.594000
      6 O1         -19.0410    -9.2680    21.3900 o          1 ZI9      -0.576100
      7 C4         -15.6340   -11.4960    19.1400 ca         1 ZI9       0.083100
      8 C5         -14.7670   -10.4150    19.0200 ca         1 ZI9      -0.130000
      9 C6         -15.2160    -9.1210    19.2740 ca         1 ZI9      -0.132000
     10 C7         -16.5250    -8.9250    19.6540 ca         1 ZI9       0.201000
     11 F2         -16.9620    -7.6650    19.8830 f          1 ZI9      -0.160000
     12 O2         -15.3170   -12.7960    18.9100 os         1 ZI9      -0.338100
     13 C8         -13.9740   -13.1050    18.5640 c3         1 ZI9       0.142300
     14 C9         -13.8740   -14.5870    18.4010 cc         1 ZI9       0.366200
     15 S1         -15.1030   -15.6450    19.0750 ss         1 ZI9      -0.082500
     16 C10        -14.1740   -17.0010    18.4910 ca         1 ZI9       0.353300
     17 C14        -13.0160   -16.5320    17.8350 ca         1 ZI9       0.042400
     18 N2         -12.8830   -15.1590    17.8020 nd         1 ZI9      -0.523100
     19 N3         -14.5080   -18.2780    18.6300 nb         1 ZI9      -0.622000
     20 C11        -13.6680   -19.1660    18.1080 ca         1 ZI9       0.367900
     21 C12        -12.4790   -18.8190    17.4310 ca         1 ZI9      -0.023000
     22 C13        -12.1470   -17.4700    17.2920 ca         1 ZI9       0.002000
     23 C15        -11.6420   -19.8420    16.9010 cg         1 ZI9      -0.137000
     24 C16        -10.9390   -20.7110    16.4560 c1         1 ZI9      -0.201000
     25 H1         -20.7730    -9.9350    19.6740 hn         1 ZI9       0.323000
     26 H2         -19.6020   -10.4140    18.4890 hn         1 ZI9       0.323000
     27 H3         -13.7400   -10.5660    18.7240 ha         1 ZI9       0.130000
     28 H4         -14.5520    -8.2750    19.1710 ha         1 ZI9       0.144000
     29 H5         -13.2910   -12.7780    19.3550 h1         1 ZI9       0.069200
     30 H6         -13.6840   -12.6200    17.6280 h1         1 ZI9       0.069200
     31 H7         -13.9310   -20.2110    18.2170 h4         1 ZI9       0.034100
     32 H8         -11.2460   -17.1620    16.7790 ha         1 ZI9       0.144000
     33 H9         -10.3140   -21.4750    16.0560 ha         1 ZI9       0.261000
@<TRIPOS>BOND
     1     1     2 1   
     2     2     3 ar  
     3     2     7 ar  
     4     3     4 1   
     5     3    10 ar  
     6     4     5 1   
     7     4     6 2   
     8     5    25 1   
     9     5    26 1   
    10     7     8 ar  
    11     7    12 1   
    12     8     9 ar  
    13     8    27 1   
    14     9    10 ar  
    15     9    28 1   
    16    10    11 1   
    17    12    13 1   
    18    13    14 1   
    19    13    29 1   
    20    13    30 1   
    21    14    15 1   
    22    14    18 2   
    23    15    16 1   
    24    16    17 ar  
    25    16    19 ar  
    26    17    18 1   
    27    17    22 ar  
    28    19    20 ar  
    29    20    21 ar  
    30    20    31 1   
    31    21    22 ar  
    32    21    23 1   
    33    22    32 1   
    34    23    24 3   
    35    24    33 1   
@<TRIPOS>SUBSTRUCTURE
     1 ZI9         1 TEMP              0 ****  ****    0 ROOT
