@<TRIPOS>MOLECULE
ZIA
   44    45     1     0     0
SMALL
abcg2


@<TRIPOS>ATOM
      1 C10        -33.6620   -62.3720   -11.1400 c5         1 ZIA       0.105700
      2 C9         -34.1700   -62.7520   -12.5210 c3         1 ZIA       0.142600
      3 C4         -32.1440   -63.3520   -16.9180 c6         1 ZIA       0.162300
      4 N1         -30.8790   -62.4720   -15.0210 ns         1 ZIA      -0.513900
      5 C6         -34.5580   -63.8920   -16.4860 c6         1 ZIA       0.151300
      6 C5         -33.3220   -64.2190   -17.3400 c6         1 ZIA       0.147300
      7 C8         -33.2560   -63.0600   -14.6880 c6         1 ZIA       0.384300
      8 C11        -32.7510   -63.4360   -10.4810 c5         1 ZIA      -0.072400
      9 C1         -28.8660   -61.7140   -13.9080 c3         1 ZIA      -0.183100
     10 O1         -29.6280   -63.9860   -13.8810 o          1 ZIA      -0.601100
     11 C3         -31.9420   -63.3780   -15.3980 c6         1 ZIA       0.044700
     12 O2         -30.9820   -63.8230   -17.5880 oh         1 ZIA      -0.644000
     13 O3         -33.5900   -63.9600   -18.7170 oh         1 ZIA      -0.711000
     14 O5         -34.2370   -63.9990   -15.1000 os         1 ZIA      -0.477000
     15 O6         -33.0690   -63.1820   -13.3230 os         1 ZIA      -0.437000
     16 C12        -31.3200   -62.9270   -10.7050 c5         1 ZIA      -0.165400
     17 C13        -31.4810   -61.4490   -11.0110 c          1 ZIA       0.563000
     18 O7         -30.5800   -60.6180   -11.1000 o          1 ZIA      -0.579000
     19 N2         -32.7950   -61.2010   -11.1800 ns         1 ZIA      -0.511900
     20 H1         -34.5390   -62.1670   -10.5220 h1         1 ZIA       0.064700
     21 H2         -34.6560   -61.8910   -12.9920 h1         1 ZIA       0.046700
     22 H3         -34.9060   -63.5570   -12.4320 h1         1 ZIA       0.046700
     23 H4         -32.3610   -62.3210   -17.2280 h1         1 ZIA       0.041700
     24 H5         -30.9790   -61.4980   -15.2670 hn         1 ZIA       0.310500
     25 H6         -34.8740   -62.8640   -16.7120 h1         1 ZIA       0.062700
     26 H7         -33.0500   -65.2690   -17.1940 h1         1 ZIA       0.063700
     27 H8         -33.6060   -62.0460   -14.9400 h2         1 ZIA       0.022700
     28 H9         -32.9710   -63.4830    -9.4150 hc         1 ZIA       0.060200
     29 H10        -32.9230   -64.4230   -10.9050 hc         1 ZIA       0.060200
     30 H11        -27.8420   -62.0760   -13.9830 hc         1 ZIA       0.070033
     31 H12        -28.9940   -60.8360   -14.5400 hc         1 ZIA       0.070033
     32 H13        -29.0580   -61.4280   -12.8710 hc         1 ZIA       0.070033
     33 H14        -31.6350   -64.3780   -15.0950 h1         1 ZIA       0.120700
     34 H15        -30.2420   -63.2550   -17.3350 ho         1 ZIA       0.453000
     35 H16        -33.8380   -64.7850   -19.1500 ho         1 ZIA       0.510000
     36 H19        -37.6050   -64.9380   -16.3000 ho         1 ZIA       0.505000
     37 H20        -30.8390   -63.3950   -11.5650 hc         1 ZIA       0.087200
     38 H21        -30.6680   -63.0620    -9.8430 hc         1 ZIA       0.087200
     39 H22        -33.1220   -60.2980   -11.4900 hn         1 ZIA       0.319500
     40 C7         -35.7070   -64.8330   -16.7630 c3         1 ZIA       0.168600
     41 C2         -29.8130   -62.8320   -14.2670 c          1 ZIA       0.602100
     42 O4         -36.8760   -64.3350   -16.1130 oh         1 ZIA      -0.717000
     43 H17        -35.8640   -64.8920   -17.8430 h1         1 ZIA       0.034200
     44 H18        -35.4480   -65.8300   -16.3920 h1         1 ZIA       0.034200
@<TRIPOS>BOND
     1     1     2 1   
     2     1     8 1   
     3     1    19 1   
     4     1    20 1   
     5     2    15 1   
     6     2    21 1   
     7     2    22 1   
     8     3     6 1   
     9     3    11 1   
    10     3    12 1   
    11     3    23 1   
    12     4    11 1   
    13     4    24 1   
    14     4    41 1   
    15     5     6 1   
    16     5    14 1   
    17     5    25 1   
    18     5    40 1   
    19     6    13 1   
    20     6    26 1   
    21     7    11 1   
    22     7    14 1   
    23     7    15 1   
    24     7    27 1   
    25     8    16 1   
    26     8    28 1   
    27     8    29 1   
    28     9    30 1   
    29     9    31 1   
    30     9    32 1   
    31     9    41 1   
    32    10    41 2   
    33    11    33 1   
    34    12    34 1   
    35    13    35 1   
    36    16    17 1   
    37    16    37 1   
    38    16    38 1   
    39    17    18 2   
    40    17    19 1   
    41    19    39 1   
    42    36    42 1   
    43    40    42 1   
    44    40    43 1   
    45    40    44 1   
@<TRIPOS>SUBSTRUCTURE
     1 ZIA         1 TEMP              0 ****  ****    0 ROOT
