@<TRIPOS>MOLECULE
ZIA
   44    45     1     0     0
SMALL
No Charge or Current Charge


@<TRIPOS>ATOM
      1 C10        -33.5800   -62.1530   -11.1210 c5         1 ZIA       0.105700
      2 C9         -34.0360   -62.2890   -12.6040 c3         1 ZIA       0.142600
      3 C4         -32.1940   -63.4170   -17.0750 c6         1 ZIA       0.162300
      4 N1         -30.7700   -62.3200   -15.3180 ns         1 ZIA      -0.513900
      5 C6         -34.6010   -63.9760   -16.4540 c6         1 ZIA       0.151300
      6 C5         -33.3710   -64.4130   -17.3100 c6         1 ZIA       0.147300
      7 C8         -33.1870   -62.8840   -14.8160 c6         1 ZIA       0.384300
      8 C11        -33.2110   -63.4920   -10.3990 c5         1 ZIA      -0.072400
      9 C1         -28.8890   -61.2440   -14.1900 c3         1 ZIA      -0.183100
     10 O1         -29.6520   -63.4760   -13.7010 o          1 ZIA      -0.601100
     11 C3         -31.8750   -63.2870   -15.5590 c6         1 ZIA       0.044700
     12 O2         -31.0320   -63.8460   -17.8070 oh         1 ZIA      -0.644000
     13 O3         -33.6840   -64.4780   -18.7150 oh         1 ZIA      -0.711000
     14 O5         -34.2070   -63.8710   -15.0610 os         1 ZIA      -0.477000
     15 O6         -32.9550   -62.8020   -13.4040 os         1 ZIA      -0.437000
     16 C12        -31.6890   -63.5990   -10.6630 c5         1 ZIA      -0.165400
     17 C13        -31.2300   -62.1490   -10.6460 c          1 ZIA       0.563000
     18 O7         -30.2100   -61.6670   -10.1800 o          1 ZIA      -0.579000
     19 N2         -32.3300   -61.3950   -10.9590 ns         1 ZIA      -0.511900
     20 H1         -34.4050   -61.6660   -10.5830 h1         1 ZIA       0.064700
     21 H2         -34.3410   -61.2980   -12.9670 h1         1 ZIA       0.046700
     22 H3         -34.9100   -62.9520   -12.6530 h1         1 ZIA       0.046700
     23 H4         -32.5080   -62.4270   -17.4380 h1         1 ZIA       0.041700
     24 H5         -30.8040   -61.4230   -15.7900 hn         1 ZIA       0.310500
     25 H6         -34.9540   -62.9930   -16.7990 h1         1 ZIA       0.062700
     26 H7         -33.0510   -65.4060   -16.9560 h1         1 ZIA       0.063700
     27 H8         -33.5260   -61.9040   -15.1820 h2         1 ZIA       0.022700
     28 H9         -33.4110   -63.4160    -9.3230 hc         1 ZIA       0.060200
     29 H10        -33.7760   -64.3540   -10.7740 hc         1 ZIA       0.060200
     30 H11        -28.1160   -61.3980   -13.4290 hc         1 ZIA       0.070033
     31 H12        -28.4570   -60.9830   -15.1620 hc         1 ZIA       0.070033
     32 H13        -29.5090   -60.3680   -13.9660 hc         1 ZIA       0.070033
     33 H14        -31.5740   -64.2750   -15.1810 h1         1 ZIA       0.120700
     34 H15        -30.2680   -63.3610   -17.4220 ho         1 ZIA       0.453000
     35 H16        -32.8070   -64.4740   -19.1700 ho         1 ZIA       0.510000
     36 H19        -37.5820   -65.3520   -15.8210 ho         1 ZIA       0.505000
     37 H20        -31.5310   -63.9920   -11.6720 hc         1 ZIA       0.087200
     38 H21        -31.1250   -64.2100    -9.9510 hc         1 ZIA       0.087200
     39 H22        -32.2560   -60.3870   -10.9000 hn         1 ZIA       0.319500
     40 C7         -35.7920   -64.9850   -16.5590 c3         1 ZIA       0.168600
     41 C2         -29.7930   -62.4560   -14.3570 c          1 ZIA       0.602100
     42 O4         -36.9230   -64.6230   -15.7390 oh         1 ZIA      -0.717000
     43 H17        -36.1010   -65.0450   -17.6120 h1         1 ZIA       0.034200
     44 H18        -35.4230   -65.9800   -16.2730 h1         1 ZIA       0.034200
@<TRIPOS>BOND
     1     1     2 1   
     2     1     8 1   
     3     1    19 1   
     4     1    20 1   
     5     2    15 1   
     6     2    21 1   
     7     2    22 1   
     8     3     6 1   
     9     3    11 1   
    10     3    12 1   
    11     3    23 1   
    12     4    11 1   
    13     4    24 1   
    14     4    41 1   
    15     5     6 1   
    16     5    14 1   
    17     5    25 1   
    18     5    40 1   
    19     6    13 1   
    20     6    26 1   
    21     7    11 1   
    22     7    14 1   
    23     7    15 1   
    24     7    27 1   
    25     8    16 1   
    26     8    28 1   
    27     8    29 1   
    28     9    30 1   
    29     9    31 1   
    30     9    32 1   
    31     9    41 1   
    32    10    41 2   
    33    11    33 1   
    34    12    34 1   
    35    13    35 1   
    36    16    17 1   
    37    16    37 1   
    38    16    38 1   
    39    17    18 2   
    40    17    19 1   
    41    19    39 1   
    42    36    42 1   
    43    40    42 1   
    44    40    43 1   
    45    40    44 1   
@<TRIPOS>SUBSTRUCTURE
     1 ZIA         1 TEMP              0 ****  ****    0 ROOT
