@<TRIPOS>MOLECULE
ZIE
   69    71     1     0     0
SMALL
No Charge or Current Charge


@<TRIPOS>ATOM
      1 C1         -28.6400   -63.4560   -13.2410 c3         1 ZIE      -0.181100
      2 C2         -29.8130   -64.1420   -13.9250 c          1 ZIE       0.600100
      3 C3         -31.7180   -63.7540   -15.5710 c6         1 ZIE       0.041700
      4 C4         -31.7270   -63.1760   -17.0150 c6         1 ZIE       0.163300
      5 C5         -33.0530   -63.5310   -17.7530 c6         1 ZIE       0.147300
      6 C9         -34.0070   -63.2360   -12.5870 c6         1 ZIE       0.155300
      7 C10        -34.6570   -64.3250   -11.6680 c6         1 ZIE       0.158300
      8 C13        -37.7600   -65.7980    -8.1870 c3         1 ZIE      -0.176100
      9 C14        -34.8210   -62.5910    -9.8290 c6         1 ZIE       0.380300
     10 C15        -33.3210   -62.1570   -11.6850 c6         1 ZIE       0.158300
     11 C16        -32.6890   -60.9570   -12.4650 c3         1 ZIE       0.166600
     12 C17        -35.1980   -61.0360    -7.9590 ca         1 ZIE       0.187100
     13 C18        -36.1260   -60.4250    -7.1030 ca         1 ZIE      -0.173500
     14 C19        -35.7060   -59.5180    -6.1150 ca         1 ZIE      -0.010500
     15 C20        -34.3340   -59.2110    -5.9710 ca         1 ZIE      -0.213200
     16 C21        -33.3970   -59.8280    -6.8330 ca         1 ZIE      -0.010500
     17 C22        -33.8260   -60.7340    -7.8180 ca         1 ZIE      -0.173500
     18 O1         -30.1370   -65.2930   -13.6770 o          1 ZIE      -0.581100
     19 N1         -30.4710   -63.3680   -14.8550 ns         1 ZIE      -0.520900
     20 O2         -30.6010   -63.6640   -17.7660 oh         1 ZIE      -0.643000
     21 O3         -33.0550   -62.9380   -19.0660 oh         1 ZIE      -0.711000
     22 C6         -34.2630   -63.0570   -16.8930 c6         1 ZIE       0.148300
     23 O5         -34.1730   -63.6480   -15.5710 os         1 ZIE      -0.451000
     24 C8         -33.0020   -63.2610   -14.8300 c6         1 ZIE       0.389300
     25 O6         -33.0800   -63.8530   -13.5200 os         1 ZIE      -0.432000
     26 O7         -35.3690   -65.3150   -12.4370 oh         1 ZIE      -0.683000
     27 C11        -35.6080   -63.6820   -10.6160 c6         1 ZIE       0.041700
     28 N2         -36.1870   -64.7180    -9.7150 ns         1 ZIE      -0.516900
     29 O8         -38.2860   -63.8520    -9.5090 o          1 ZIE      -0.584100
     30 O9         -34.2950   -61.6210   -10.7550 os         1 ZIE      -0.464000
     31 O10        -32.1490   -59.9380   -11.6000 oh         1 ZIE      -0.718000
     32 O11        -35.6890   -61.9220    -8.8970 os         1 ZIE      -0.318100
     33 N3         -33.8790   -58.2450    -4.9210 no         1 ZIE       0.680200
     34 O12        -32.6670   -58.0080    -4.8300 o          1 ZIE      -0.404000
     35 O13        -34.7340   -57.7290    -4.1910 o          1 ZIE      -0.404000
     36 H1         -28.1340   -64.1050   -12.5190 hc         1 ZIE       0.064033
     37 H2         -27.9490   -63.0830   -14.0060 hc         1 ZIE       0.064033
     38 H3         -28.9930   -62.5290   -12.7750 hc         1 ZIE       0.064033
     39 H4         -31.7720   -64.8510   -15.6310 h1         1 ZIE       0.123700
     40 H5         -31.6640   -62.0800   -16.9370 h1         1 ZIE       0.040700
     41 H6         -33.1110   -64.6270   -17.8420 h1         1 ZIE       0.064700
     42 H9         -34.8170   -62.7550   -13.1550 h1         1 ZIE       0.081700
     43 H10        -33.8410   -64.8190   -11.1190 h1         1 ZIE       0.043700
     44 H11        -37.0200   -65.7570    -7.3790 hc         1 ZIE       0.064033
     45 H12        -38.7840   -65.7510    -7.8010 hc         1 ZIE       0.064033
     46 H13        -37.5460   -66.7670    -8.6510 hc         1 ZIE       0.064033
     47 H14        -33.9980   -63.0690    -9.2780 h2         1 ZIE       0.038700
     48 H15        -32.5130   -62.6350   -11.1110 h1         1 ZIE       0.067700
     49 H16        -31.8890   -61.3480   -13.1070 h1         1 ZIE       0.037200
     50 H17        -33.4610   -60.5280   -13.1190 h1         1 ZIE       0.037200
     51 H18        -37.1830   -60.6570    -7.2080 ha         1 ZIE       0.145000
     52 H19        -36.4530   -59.0610    -5.4670 ha         1 ZIE       0.153000
     53 H20        -32.3330   -59.6100    -6.7470 ha         1 ZIE       0.153000
     54 H21        -33.0780   -61.1850    -8.4630 ha         1 ZIE       0.145000
     55 H22        -30.1180   -62.4240   -14.9730 hn         1 ZIE       0.303500
     56 H23        -29.8350   -63.6670   -17.1490 ho         1 ZIE       0.451000
     57 H24        -32.1350   -63.0640   -19.4030 ho         1 ZIE       0.511000
     58 H25        -34.2350   -61.9610   -16.7950 h1         1 ZIE       0.061700
     59 H26        -37.5740   -63.4140   -17.1570 ho         1 ZIE       0.506000
     60 H27        -32.9710   -62.1660   -14.7500 h2         1 ZIE       0.020700
     61 H28        -35.9290   -65.8150   -11.8010 ho         1 ZIE       0.509000
     62 H29        -36.4260   -63.1760   -11.1500 h1         1 ZIE       0.126700
     63 H30        -35.5740   -65.4420    -9.3530 hn         1 ZIE       0.310500
     64 H31        -31.8910   -59.1770   -12.1710 ho         1 ZIE       0.505000
     65 C7         -35.6390   -63.4540   -17.5210 c3         1 ZIE       0.171600
     66 O4         -36.7680   -63.0560   -16.7170 oh         1 ZIE      -0.710000
     67 H7         -35.7100   -62.9920   -18.5150 h1         1 ZIE       0.033200
     68 C12        -37.4590   -64.6910    -9.1880 c          1 ZIE       0.602100
     69 H8         -35.6460   -64.5420   -17.6680 h1         1 ZIE       0.033200
@<TRIPOS>BOND
     1     1     2 1   
     2     1    36 1   
     3     1    37 1   
     4     1    38 1   
     5     2    18 2   
     6     2    19 1   
     7     3     4 1   
     8     3    19 1   
     9     3    24 1   
    10     3    39 1   
    11     4     5 1   
    12     4    20 1   
    13     4    40 1   
    14     5    21 1   
    15     5    22 1   
    16     5    41 1   
    17     6     7 1   
    18     6    10 1   
    19     6    25 1   
    20     6    42 1   
    21     7    26 1   
    22     7    27 1   
    23     7    43 1   
    24     8    44 1   
    25     8    45 1   
    26     8    46 1   
    27     8    68 1   
    28     9    27 1   
    29     9    30 1   
    30     9    32 1   
    31     9    47 1   
    32    10    11 1   
    33    10    30 1   
    34    10    48 1   
    35    11    31 1   
    36    11    49 1   
    37    11    50 1   
    38    12    13 ar  
    39    12    17 ar  
    40    12    32 1   
    41    13    14 ar  
    42    13    51 1   
    43    14    15 ar  
    44    14    52 1   
    45    15    16 ar  
    46    15    33 1   
    47    16    17 ar  
    48    16    53 1   
    49    17    54 1   
    50    19    55 1   
    51    20    56 1   
    52    21    57 1   
    53    22    23 1   
    54    22    58 1   
    55    22    65 1   
    56    23    24 1   
    57    24    25 1   
    58    24    60 1   
    59    26    61 1   
    60    27    28 1   
    61    27    62 1   
    62    28    63 1   
    63    28    68 1   
    64    29    68 2   
    65    31    64 1   
    66    33    34 1   
    67    33    35 1   
    68    59    66 1   
    69    65    66 1   
    70    65    67 1   
    71    65    69 1   
@<TRIPOS>SUBSTRUCTURE
     1 ZIE         1 TEMP              0 ****  ****    0 ROOT
