@<TRIPOS>MOLECULE
ZIE
   69    71     1     0     0
SMALL
abcg2


@<TRIPOS>ATOM
      1 C1         -28.8640   -62.2080   -13.3920 c3         1 ZIE      -0.181100
      2 C2         -29.8100   -63.2520   -13.9350 c          1 ZIE       0.600100
      3 C3         -31.7530   -63.6090   -15.4320 c6         1 ZIE       0.041700
      4 C4         -31.7630   -63.4560   -16.9580 c6         1 ZIE       0.163300
      5 C5         -32.9660   -64.1340   -17.5940 c6         1 ZIE       0.147300
      6 C9         -34.0280   -62.8620   -12.6380 c6         1 ZIE       0.155300
      7 C10        -34.8550   -63.8910   -11.8740 c6         1 ZIE       0.158300
      8 C13        -38.1680   -65.3320    -8.7930 c3         1 ZIE      -0.176100
      9 C14        -34.7510   -62.3730    -9.8810 c6         1 ZIE       0.380300
     10 C15        -33.2270   -61.9960   -11.6510 c6         1 ZIE       0.158300
     11 C16        -32.4940   -60.8590   -12.3210 c3         1 ZIE       0.166600
     12 C17        -34.9980   -61.0800    -7.8880 ca         1 ZIE       0.187100
     13 C18        -35.8990   -60.5530    -6.9560 ca         1 ZIE      -0.173500
     14 C19        -35.4320   -59.9240    -5.8220 ca         1 ZIE      -0.010500
     15 C20        -34.0570   -59.8230    -5.6220 ca         1 ZIE      -0.213200
     16 C21        -33.1520   -60.3360    -6.5450 ca         1 ZIE      -0.010500
     17 C22        -33.6200   -60.9620    -7.6860 ca         1 ZIE      -0.173500
     18 O1         -29.7960   -64.4120   -13.5290 o          1 ZIE      -0.581100
     19 N1         -30.6820   -62.8110   -14.8740 ns         1 ZIE      -0.520900
     20 O2         -30.5870   -64.0190   -17.5270 oh         1 ZIE      -0.643000
     21 O3         -33.0160   -63.7370   -18.9630 oh         1 ZIE      -0.711000
     22 C6         -34.2510   -63.7140   -16.8640 c6         1 ZIE       0.148300
     23 O5         -34.1270   -63.9890   -15.4700 os         1 ZIE      -0.451000
     24 C8         -33.1130   -63.2310   -14.8390 c6         1 ZIE       0.389300
     25 O6         -33.1030   -63.5490   -13.4840 os         1 ZIE      -0.432000
     26 O7         -35.7250   -64.5470   -12.7800 oh         1 ZIE      -0.683000
     27 C11        -35.6620   -63.2390   -10.7430 c6         1 ZIE       0.041700
     28 N2         -36.3390   -64.2510    -9.9630 ns         1 ZIE      -0.516900
     29 O8         -38.4250   -63.3740   -10.1470 o          1 ZIE      -0.584100
     30 O9         -34.1070   -61.4160   -10.6830 os         1 ZIE      -0.464000
     31 O10        -31.5700   -60.3030   -11.3870 oh         1 ZIE      -0.718000
     32 O11        -35.5630   -61.6850    -8.9620 os         1 ZIE      -0.318100
     33 N3         -33.5590   -59.1650    -4.4270 no         1 ZIE       0.680200
     34 O12        -32.3440   -59.0870    -4.2640 o          1 ZIE      -0.404000
     35 O13        -34.3720   -58.7140    -3.6250 o          1 ZIE      -0.404000
     36 H1         -27.8920   -62.6640   -13.2090 hc         1 ZIE       0.064033
     37 H2         -28.7520   -61.3520   -14.0570 hc         1 ZIE       0.064033
     38 H3         -29.2600   -61.8530   -12.4370 hc         1 ZIE       0.064033
     39 H4         -31.5590   -64.6500   -15.1750 h1         1 ZIE       0.123700
     40 H5         -31.8210   -62.3870   -17.2020 h1         1 ZIE       0.040700
     41 H6         -32.8440   -65.2190   -17.5130 h1         1 ZIE       0.064700
     42 H9         -34.6960   -62.2340   -13.2340 h1         1 ZIE       0.081700
     43 H10        -34.1540   -64.6130   -11.4330 h1         1 ZIE       0.043700
     44 H11        -38.4950   -64.8850    -7.8530 hc         1 ZIE       0.064033
     45 H12        -39.0350   -65.8010    -9.2590 hc         1 ZIE       0.064033
     46 H13        -37.4140   -66.0890    -8.5830 hc         1 ZIE       0.064033
     47 H14        -34.0140   -62.9870    -9.3470 h2         1 ZIE       0.038700
     48 H15        -32.4970   -62.6390   -11.1420 h1         1 ZIE       0.067700
     49 H16        -31.9690   -61.2400   -13.1960 h1         1 ZIE       0.037200
     50 H17        -33.2220   -60.1080   -12.6480 h1         1 ZIE       0.037200
     51 H18        -36.9610   -60.6540    -7.1380 ha         1 ZIE       0.145000
     52 H19        -36.1180   -59.5170    -5.0940 ha         1 ZIE       0.153000
     53 H20        -32.0910   -60.2380    -6.3740 ha         1 ZIE       0.153000
     54 H21        -32.9150   -61.3350    -8.4130 ha         1 ZIE       0.145000
     55 H22        -30.6360   -61.8400   -15.1450 hn         1 ZIE       0.303500
     56 H23        -29.8230   -63.5450   -17.1710 ho         1 ZIE       0.451000
     57 H24        -33.3250   -64.4790   -19.4950 ho         1 ZIE       0.511000
     58 H25        -34.4010   -62.6360   -17.0170 h1         1 ZIE       0.061700
     59 H26        -37.4030   -64.3490   -17.1240 ho         1 ZIE       0.506000
     60 H27        -33.3170   -62.1610   -14.9890 h2         1 ZIE       0.020700
     61 H28        -36.2020   -65.2310   -12.2900 ho         1 ZIE       0.509000
     62 H29        -36.4260   -62.5930   -11.1730 h1         1 ZIE       0.126700
     63 H30        -35.7740   -64.9650    -9.5270 hn         1 ZIE       0.310500
     64 H31        -31.0500   -59.6300   -11.8420 ho         1 ZIE       0.505000
     65 C7         -35.4650   -64.4580   -17.3670 c3         1 ZIE       0.171600
     66 O4         -36.6340   -63.8530   -16.8180 oh         1 ZIE      -0.710000
     67 H7         -35.4850   -64.4090   -18.4590 h1         1 ZIE       0.033200
     68 C12        -37.6680   -64.2300    -9.6950 c          1 ZIE       0.602100
     69 H8         -35.3890   -65.5080   -17.0650 h1         1 ZIE       0.033200
@<TRIPOS>BOND
     1     1     2 1   
     2     1    36 1   
     3     1    37 1   
     4     1    38 1   
     5     2    18 2   
     6     2    19 1   
     7     3     4 1   
     8     3    19 1   
     9     3    24 1   
    10     3    39 1   
    11     4     5 1   
    12     4    20 1   
    13     4    40 1   
    14     5    21 1   
    15     5    22 1   
    16     5    41 1   
    17     6     7 1   
    18     6    10 1   
    19     6    25 1   
    20     6    42 1   
    21     7    26 1   
    22     7    27 1   
    23     7    43 1   
    24     8    44 1   
    25     8    45 1   
    26     8    46 1   
    27     8    68 1   
    28     9    27 1   
    29     9    30 1   
    30     9    32 1   
    31     9    47 1   
    32    10    11 1   
    33    10    30 1   
    34    10    48 1   
    35    11    31 1   
    36    11    49 1   
    37    11    50 1   
    38    12    13 ar  
    39    12    17 ar  
    40    12    32 1   
    41    13    14 ar  
    42    13    51 1   
    43    14    15 ar  
    44    14    52 1   
    45    15    16 ar  
    46    15    33 1   
    47    16    17 ar  
    48    16    53 1   
    49    17    54 1   
    50    19    55 1   
    51    20    56 1   
    52    21    57 1   
    53    22    23 1   
    54    22    58 1   
    55    22    65 1   
    56    23    24 1   
    57    24    25 1   
    58    24    60 1   
    59    26    61 1   
    60    27    28 1   
    61    27    62 1   
    62    28    63 1   
    63    28    68 1   
    64    29    68 2   
    65    31    64 1   
    66    33    34 1   
    67    33    35 1   
    68    59    66 1   
    69    65    66 1   
    70    65    67 1   
    71    65    69 1   
@<TRIPOS>SUBSTRUCTURE
     1 ZIE         1 TEMP              0 ****  ****    0 ROOT
