@<TRIPOS>MOLECULE
ZIG
   53    57     1     0     0
SMALL
No Charge or Current Charge


@<TRIPOS>ATOM
      1 C1           2.8290     4.3460     1.2650 c3         1 ZIG       0.160900
      2 C2          -1.4830    -1.7380     2.2870 ca         1 ZIG      -0.091000
      3 C3           4.4930     0.5660    -2.8330 ca         1 ZIG      -0.197000
      4 C4          -2.5990    -2.5880     2.2640 ca         1 ZIG      -0.076000
      5 C5           4.7590     0.2160    -1.4990 ca         1 ZIG       0.039000
      6 C6          -5.1550     0.2210    -2.4820 ca         1 ZIG      -0.106000
      7 C7          -5.8600    -1.8110    -0.2040 ca         1 ZIG      -0.148000
      8 C8          -5.2690     1.3970    -3.2450 ca         1 ZIG       0.275900
      9 C9          -5.7960    -2.9330     0.6290 ca         1 ZIG       0.353900
     10 C10         -2.5420    -0.3190     0.6340 ca         1 ZIG      -0.089000
     11 C11          2.4760    -0.7850    -2.7950 ca         1 ZIG      -0.230000
     12 C12          1.0750    -0.1990     1.6430 ca         1 ZIG       0.004000
     13 C13         -4.8140     1.6470    -0.5690 ca         1 ZIG       0.284900
     14 C14         -0.3640     1.7140     1.3070 ca         1 ZIG       0.399900
     15 C15         -1.4300    -0.5880     1.4670 cp         1 ZIG      -0.013000
     16 C16          3.3540     0.0640    -3.4750 ca         1 ZIG       0.254000
     17 C17         -4.9060     0.3300    -1.0910 cp         1 ZIG      -0.051000
     18 C18         -4.7990    -0.8800    -0.2220 cp         1 ZIG       0.002000
     19 C19         -3.7020    -2.3220     1.4350 ca         1 ZIG       0.269000
     20 C20          3.8790    -0.6450    -0.8100 ca         1 ZIG      -0.366500
     21 C21         -0.2340     0.3130     1.4730 cp         1 ZIG      -0.120000
     22 C22         -3.6810    -1.1590     0.6170 ca         1 ZIG      -0.064000
     23 C23          2.1810     0.6700     1.6300 ca         1 ZIG       0.147000
     24 C24          2.7350    -1.1410    -1.4650 ca         1 ZIG       0.303000
     25 C25          1.9200     2.0650     1.4640 ca         1 ZIG       0.570300
     26 N26         -4.7450    -3.1840     1.4380 nb         1 ZIG      -0.649000
     27 N27         -5.1560     2.6230    -2.6780 nb         1 ZIG      -0.310000
     28 N28          0.6770     2.5760     1.3050 nb         1 ZIG      -0.744000
     29 N29         -4.9320     2.7470    -1.3530 nb         1 ZIG      -0.315000
     30 O31          3.5370    -2.2740     1.3160 o          1 ZIG      -0.523000
     31 O32          5.6510    -0.8320     1.1690 o          1 ZIG      -0.523000
     32 O33          3.0010     2.9270     1.4520 os         1 ZIG      -0.473300
     33 F35          1.8540    -1.9520    -0.8430 f          1 ZIG      -0.145000
     34 S36          4.2310    -1.0560     0.8950 sy         1 ZIG       1.156600
     35 H1           2.3540     4.5600     0.2990 h1         1 ZIG       0.052700
     36 H1A          2.2060     4.7740     2.0620 h1         1 ZIG       0.052700
     37 H1B          3.8010     4.8550     1.2860 h1         1 ZIG       0.052700
     38 H2          -0.6570    -1.9750     2.9520 ha         1 ZIG       0.123000
     39 H3           5.1670     1.2280    -3.3690 ha         1 ZIG       0.143000
     40 H4          -2.6120    -3.4700     2.8990 ha         1 ZIG       0.137000
     41 H5           5.6460     0.6190    -1.0120 ha         1 ZIG       0.146000
     42 H6          -5.2510    -0.7500    -2.9610 ha         1 ZIG       0.138000
     43 H7          -6.7390    -1.6570    -0.8230 ha         1 ZIG       0.128000
     44 H8          -5.4540     1.3620    -4.3180 h4         1 ZIG       0.032100
     45 H9          -6.6150    -3.6520     0.6570 h4         1 ZIG       0.025100
     46 H10         -2.4940     0.5410    -0.0250 ha         1 ZIG       0.122000
     47 H11          1.5930    -1.1680    -3.2970 ha         1 ZIG       0.156000
     48 H12          1.2270    -1.2650     1.7740 ha         1 ZIG       0.152000
     49 H13         -4.6460     1.8190     0.4930 h4         1 ZIG       0.034100
     50 H14         -1.3470     2.1660     1.1850 h4         1 ZIG       0.029100
     51 HN30         4.2190     0.8890     1.8170 hn         1 ZIG       0.500000
     52 N30          3.5000     0.1740     1.7730 nu         1 ZIG      -0.851100
     53 F34          3.1010     0.4050    -4.7570 f          1 ZIG      -0.161000
@<TRIPOS>BOND
     1     1    32 1   
     2     1    35 1   
     3     1    36 1   
     4     1    37 1   
     5     2     4 ar  
     6     2    15 ar  
     7     2    38 1   
     8     3     5 ar  
     9     3    16 ar  
    10     3    39 1   
    11     4    19 ar  
    12     4    40 1   
    13     5    20 ar  
    14     5    41 1   
    15     6     8 ar  
    16     6    17 ar  
    17     6    42 1   
    18     7     9 ar  
    19     7    18 ar  
    20     7    43 1   
    21     8    27 ar  
    22     8    44 1   
    23     9    26 ar  
    24     9    45 1   
    25    10    15 ar  
    26    10    22 ar  
    27    10    46 1   
    28    11    16 ar  
    29    11    24 ar  
    30    11    47 1   
    31    12    21 ar  
    32    12    23 ar  
    33    12    48 1   
    34    13    17 ar  
    35    13    29 ar  
    36    13    49 1   
    37    14    21 ar  
    38    14    28 ar  
    39    14    50 1   
    40    15    21 1   
    41    16    53 1   
    42    17    18 1   
    43    18    22 ar  
    44    19    22 ar  
    45    19    26 ar  
    46    20    24 ar  
    47    20    34 1   
    48    23    25 ar  
    49    23    52 1   
    50    24    33 1   
    51    25    28 ar  
    52    25    32 1   
    53    27    29 ar  
    54    30    34 2   
    55    31    34 2   
    56    34    52 1   
    57    51    52 1   
@<TRIPOS>SUBSTRUCTURE
     1 ZIG         1 TEMP              0 ****  ****    0 ROOT
