@<TRIPOS>MOLECULE
ZIG
   53    57     1     0     0
SMALL
abcg2


@<TRIPOS>ATOM
      1 C1           2.9900     3.4910     0.3750 c3         1 ZIG       0.160900
      2 C2          -1.8200    -1.5660     2.6780 ca         1 ZIG      -0.091000
      3 C3           5.4220     1.3260    -2.2140 ca         1 ZIG      -0.197000
      4 C4          -2.9880    -2.2500     2.8530 ca         1 ZIG      -0.076000
      5 C5           5.2660     0.3970    -1.2030 ca         1 ZIG       0.039000
      6 C6          -5.2810    -0.3400    -2.3650 ca         1 ZIG      -0.106000
      7 C7          -6.1740    -1.7140     0.2650 ca         1 ZIG      -0.148000
      8 C8          -5.2690     0.6710    -3.3210 ca         1 ZIG       0.275900
      9 C9          -6.1980    -2.6130     1.3490 ca         1 ZIG       0.353900
     10 C10         -2.7130    -0.4510     0.7440 ca         1 ZIG      -0.089000
     11 C11          3.0850     1.0550    -2.8030 ca         1 ZIG      -0.230000
     12 C12          0.8430    -0.5450     1.6640 ca         1 ZIG       0.004000
     13 C13         -4.8230     1.3860    -0.8310 ca         1 ZIG       0.284900
     14 C14         -0.3610     1.3950     1.0270 ca         1 ZIG       0.399900
     15 C15         -1.6630    -0.6510     1.6090 cp         1 ZIG      -0.013000
     16 C16          4.3240     1.6370    -2.9940 ca         1 ZIG       0.254000
     17 C17         -5.0400     0.0220    -1.0580 cp         1 ZIG      -0.051000
     18 C18         -5.0570    -0.9530     0.0470 cp         1 ZIG       0.002000
     19 C19         -4.0770    -2.0560     1.9740 ca         1 ZIG       0.269000
     20 C20          4.0360    -0.2130    -0.9780 ca         1 ZIG      -0.366500
     21 C21         -0.3920     0.0670     1.4290 cp         1 ZIG      -0.120000
     22 C22         -3.9420    -1.1240     0.9130 ca         1 ZIG      -0.064000
     23 C23          2.0090     0.1590     1.4700 ca         1 ZIG       0.147000
     24 C24          2.9600     0.1300    -1.7870 ca         1 ZIG       0.303000
     25 C25          1.9100     1.5010     1.0530 ca         1 ZIG       0.570300
     26 N26         -5.2030    -2.7770     2.1780 nb         1 ZIG      -0.649000
     27 N27         -5.0480     1.9410    -3.0340 nb         1 ZIG      -0.310000
     28 N28          0.7560     2.0920     0.8510 nb         1 ZIG      -0.744000
     29 N29         -4.8320     2.2950    -1.7850 nb         1 ZIG      -0.315000
     30 O31          2.8990    -2.3510     0.0310 o          1 ZIG      -0.523000
     31 O32          5.2160    -1.7350     0.7880 o          1 ZIG      -0.523000
     32 O33          3.0470     2.1600     0.8760 os         1 ZIG      -0.473300
     33 F35          1.7650    -0.4170    -1.5900 f          1 ZIG      -0.145000
     34 S36          3.8810    -1.3460     0.3770 sy         1 ZIG       1.156600
     35 H1           2.4940     3.5320    -0.5950 h1         1 ZIG       0.052700
     36 H1A          2.4730     4.1580     1.0650 h1         1 ZIG       0.052700
     37 H1B          4.0230     3.8090     0.2670 h1         1 ZIG       0.052700
     38 H2          -1.0060    -1.7190     3.3750 ha         1 ZIG       0.123000
     39 H3           6.3790     1.7980    -2.3910 ha         1 ZIG       0.143000
     40 H4          -3.1040    -2.9530     3.6670 ha         1 ZIG       0.137000
     41 H5           6.1170     0.1450    -0.5850 ha         1 ZIG       0.146000
     42 H6          -5.4620    -1.3670    -2.6520 ha         1 ZIG       0.138000
     43 H7          -7.0480    -1.6170    -0.3650 ha         1 ZIG       0.128000
     44 H8          -5.4420     0.4470    -4.3660 h4         1 ZIG       0.032100
     45 H9          -7.0890    -3.2050     1.5260 h4         1 ZIG       0.025100
     46 H10         -2.5820     0.2060    -0.1050 ha         1 ZIG       0.122000
     47 H11          2.2380     1.3090    -3.4260 ha         1 ZIG       0.156000
     48 H12          0.9000    -1.5790     1.9810 ha         1 ZIG       0.152000
     49 H13         -4.6510     1.7610     0.1710 h4         1 ZIG       0.034100
     50 H14         -1.2860     1.9370     0.8590 h4         1 ZIG       0.029100
     51 HN30         3.9800     0.1200     2.0730 hn         1 ZIG       0.500000
     52 N30          3.2660    -0.4620     1.6450 nu         1 ZIG      -0.851100
     53 F34          4.4560     2.5320    -3.9710 f          1 ZIG      -0.161000
@<TRIPOS>BOND
     1     1    32 1   
     2     1    35 1   
     3     1    36 1   
     4     1    37 1   
     5     2     4 ar  
     6     2    15 ar  
     7     2    38 1   
     8     3     5 ar  
     9     3    16 ar  
    10     3    39 1   
    11     4    19 ar  
    12     4    40 1   
    13     5    20 ar  
    14     5    41 1   
    15     6     8 ar  
    16     6    17 ar  
    17     6    42 1   
    18     7     9 ar  
    19     7    18 ar  
    20     7    43 1   
    21     8    27 ar  
    22     8    44 1   
    23     9    26 ar  
    24     9    45 1   
    25    10    15 ar  
    26    10    22 ar  
    27    10    46 1   
    28    11    16 ar  
    29    11    24 ar  
    30    11    47 1   
    31    12    21 ar  
    32    12    23 ar  
    33    12    48 1   
    34    13    17 ar  
    35    13    29 ar  
    36    13    49 1   
    37    14    21 ar  
    38    14    28 ar  
    39    14    50 1   
    40    15    21 1   
    41    16    53 1   
    42    17    18 1   
    43    18    22 ar  
    44    19    22 ar  
    45    19    26 ar  
    46    20    24 ar  
    47    20    34 1   
    48    23    25 ar  
    49    23    52 1   
    50    24    33 1   
    51    25    28 ar  
    52    25    32 1   
    53    27    29 ar  
    54    30    34 2   
    55    31    34 2   
    56    34    52 1   
    57    51    52 1   
@<TRIPOS>SUBSTRUCTURE
     1 ZIG         1 TEMP              0 ****  ****    0 ROOT
