@<TRIPOS>MOLECULE
ZIL
   56    56     1     0     0
SMALL
abcg2


@<TRIPOS>ATOM
      1 C12          1.8700    -0.5840    -1.0120 c          1 ZIL       0.635100
      2 O3           1.8030    -0.8120    -2.2040 o          1 ZIL      -0.570000
      3 O4           2.9970    -0.2230    -0.3840 os         1 ZIL      -0.460100
      4 C13          4.1690    -0.0620    -1.1880 c3         1 ZIL       0.231900
      5 C14          5.2490     0.4580    -0.2880 ca         1 ZIL      -0.090300
      6 C15          5.2290     1.7850     0.1350 ca         1 ZIL      -0.085000
      7 C16          6.2140     2.2700     0.9820 ca         1 ZIL      -0.118000
      8 C17          7.2340     1.4300     1.4150 ca         1 ZIL      -0.106000
      9 C18          7.2630     0.1070     0.9970 ca         1 ZIL      -0.118000
     10 C19          6.2710    -0.3760     0.1510 ca         1 ZIL      -0.085000
     11 N1           0.8470    -0.6500    -0.1470 ns         1 ZIL      -0.481900
     12 C4          -0.4970    -0.9940    -0.5460 c3         1 ZIL       0.042700
     13 C5          -1.4420    -0.2760     0.4160 c          1 ZIL       0.593100
     14 O           -1.0970    -0.0220     1.5640 o          1 ZIL      -0.634100
     15 C2          -0.7160    -2.5250    -0.5610 c3         1 ZIL      -0.057700
     16 C1          -2.0100    -2.9550    -1.2550 c3         1 ZIL      -0.091400
     17 C3          -0.6350    -3.1350     0.8340 c3         1 ZIL      -0.093100
     18 C           -2.1320    -2.5180    -2.7110 c3         1 ZIL      -0.087100
     19 N           -2.6290     0.0660    -0.0880 ns         1 ZIL      -0.446900
     20 C6          -3.6950     0.6100     0.7230 c3         1 ZIL      -0.041300
     21 C11         -4.4290    -0.4660     1.5630 c          1 ZIL       0.717000
     22 O1          -4.1710    -1.6610     1.3400 o          1 ZIL      -0.724000
     23 C7          -4.6790     1.3760    -0.1600 c3         1 ZIL      -0.071400
     24 C8          -4.0590     2.4660    -1.0380 c3         1 ZIL      -0.063700
     25 C9          -5.1530     3.1740    -1.8320 c3         1 ZIL      -0.083600
     26 C10         -3.2530     3.4710    -0.2210 c3         1 ZIL      -0.083600
     27 O2          -5.2380    -0.0120     2.3970 o          1 ZIL      -0.724000
     28 H23          4.4610    -1.0180    -1.6290 h1         1 ZIL       0.050700
     29 H24          3.9750     0.6410    -2.0010 h1         1 ZIL       0.050700
     30 H25          4.4410     2.4470    -0.2060 ha         1 ZIL       0.116500
     31 H26          6.1890     3.3030     1.3030 ha         1 ZIL       0.109500
     32 H27          8.0060     1.8090     2.0720 ha         1 ZIL       0.106000
     33 H28          8.0540    -0.5510     1.3300 ha         1 ZIL       0.109500
     34 H29          6.2970    -1.4100    -0.1720 ha         1 ZIL       0.116500
     35 H22          0.9990    -0.4210     0.8230 hn         1 ZIL       0.353500
     36 H9          -0.6550    -0.6110    -1.5570 h1         1 ZIL       0.069700
     37 H5           0.1160    -2.9200    -1.1560 hc         1 ZIL       0.037700
     38 H3          -2.0430    -4.0480    -1.2190 hc         1 ZIL       0.066700
     39 H4          -2.8730    -2.6150    -0.6770 hc         1 ZIL       0.066700
     40 H6          -1.5090    -2.8730     1.4320 hc         1 ZIL       0.042700
     41 H7          -0.5990    -4.2230     0.7630 hc         1 ZIL       0.042700
     42 H8           0.2580    -2.8160     1.3720 hc         1 ZIL       0.042700
     43 H           -2.9820    -3.0050    -3.1900 hc         1 ZIL       0.023700
     44 H1          -2.2820    -1.4420    -2.8240 hc         1 ZIL       0.023700
     45 H2          -1.2360    -2.7780    -3.2780 hc         1 ZIL       0.023700
     46 H10         -2.8620    -0.2510    -1.0150 hn         1 ZIL       0.298500
     47 H11         -3.2400     1.3150     1.4230 h1         1 ZIL       0.065700
     48 H12         -5.2210     0.6690    -0.8000 hc         1 ZIL       0.048700
     49 H13         -5.4270     1.8280     0.4960 hc         1 ZIL       0.048700
     50 H14         -3.3820     1.9910    -1.7560 hc         1 ZIL       0.032700
     51 H15         -4.7290     3.9030    -2.5250 hc         1 ZIL       0.024867
     52 H16         -5.7460     2.4660    -2.4140 hc         1 ZIL       0.024867
     53 H17         -5.8350     3.7080    -1.1650 hc         1 ZIL       0.024867
     54 H18         -3.8700     3.9220     0.5600 hc         1 ZIL       0.024867
     55 H19         -2.3910     3.0080     0.2630 hc         1 ZIL       0.024867
     56 H20         -2.8770     4.2770    -0.8530 hc         1 ZIL       0.024867
@<TRIPOS>BOND
     1     1     2 2   
     2     1     3 1   
     3     1    11 1   
     4     3     4 1   
     5     4     5 1   
     6     4    28 1   
     7     4    29 1   
     8     5     6 ar  
     9     5    10 ar  
    10     6     7 ar  
    11     6    30 1   
    12     7     8 ar  
    13     7    31 1   
    14     8     9 ar  
    15     8    32 1   
    16     9    10 ar  
    17     9    33 1   
    18    10    34 1   
    19    11    12 1   
    20    11    35 1   
    21    12    13 1   
    22    12    15 1   
    23    12    36 1   
    24    13    14 2   
    25    13    19 1   
    26    15    16 1   
    27    15    17 1   
    28    15    37 1   
    29    16    18 1   
    30    16    38 1   
    31    16    39 1   
    32    17    40 1   
    33    17    41 1   
    34    17    42 1   
    35    18    43 1   
    36    18    44 1   
    37    18    45 1   
    38    19    20 1   
    39    19    46 1   
    40    20    21 1   
    41    20    23 1   
    42    20    47 1   
    43    21    22 1   
    44    21    27 1   
    45    23    24 1   
    46    23    48 1   
    47    23    49 1   
    48    24    25 1   
    49    24    26 1   
    50    24    50 1   
    51    25    51 1   
    52    25    52 1   
    53    25    53 1   
    54    26    54 1   
    55    26    55 1   
    56    26    56 1   
@<TRIPOS>SUBSTRUCTURE
     1 ZIL         1 TEMP              0 ****  ****    0 ROOT
