@<TRIPOS>MOLECULE
ZIL
   56    56     1     0     0
SMALL
No Charge or Current Charge


@<TRIPOS>ATOM
      1 C12          1.7840    -0.7320    -1.1870 c          1 ZIL       0.635100
      2 O3           1.7820    -1.2940    -2.2710 o          1 ZIL      -0.570000
      3 O4           2.8490    -0.1150    -0.6110 os         1 ZIL      -0.460100
      4 C13          4.0940    -0.1350    -1.3260 c3         1 ZIL       0.231900
      5 C14          5.1370     0.6050    -0.4990 ca         1 ZIL      -0.090300
      6 C15          5.3290     1.9900    -0.6710 ca         1 ZIL      -0.085000
      7 C16          6.2930     2.6720     0.0930 ca         1 ZIL      -0.118000
      8 C17          7.0700     1.9740     1.0330 ca         1 ZIL      -0.106000
      9 C18          6.8810     0.5930     1.2100 ca         1 ZIL      -0.118000
     10 C19          5.9170    -0.0900     0.4470 ca         1 ZIL      -0.085000
     11 N1           0.7020    -0.5960    -0.3680 ns         1 ZIL      -0.481900
     12 C4          -0.6490    -1.1360    -0.6330 c3         1 ZIL       0.042700
     13 C5          -1.6910    -0.3450     0.2170 c          1 ZIL       0.593100
     14 O           -1.3820     0.2920     1.2200 o          1 ZIL      -0.634100
     15 C2          -0.6870    -2.6840    -0.3910 c3         1 ZIL      -0.057700
     16 C1          -1.9780    -3.3890    -0.8970 c3         1 ZIL      -0.091400
     17 C3          -0.4100    -3.0580     1.0880 c3         1 ZIL      -0.093100
     18 C           -2.2780    -3.1960    -2.3990 c3         1 ZIL      -0.087100
     19 N           -2.9890    -0.3870    -0.2530 ns         1 ZIL      -0.446900
     20 C6          -4.1540     0.3120     0.3420 c3         1 ZIL      -0.041300
     21 C11         -5.3640    -0.6660     0.4490 c          1 ZIL       0.717000
     22 O1          -5.7040    -1.2860    -0.5500 o          1 ZIL      -0.724000
     23 C7          -4.5320     1.5850    -0.4650 c3         1 ZIL      -0.071400
     24 C8          -3.4720     2.7230    -0.4800 c3         1 ZIL      -0.063700
     25 C9          -3.8530     3.8180    -1.5030 c3         1 ZIL      -0.083600
     26 C10         -3.2460     3.3450     0.9190 c3         1 ZIL      -0.083600
     27 O2          -5.8730    -0.8350     1.5480 o          1 ZIL      -0.724000
     28 H23          4.4270    -1.1670    -1.4980 h1         1 ZIL       0.050700
     29 H24          3.9880     0.3530    -2.3050 h1         1 ZIL       0.050700
     30 H25          4.7300     2.5390    -1.3950 ha         1 ZIL       0.116500
     31 H26          6.4370     3.7420    -0.0440 ha         1 ZIL       0.109500
     32 H27          7.8150     2.5020     1.6230 ha         1 ZIL       0.106000
     33 H28          7.4810     0.0520     1.9380 ha         1 ZIL       0.109500
     34 H29          5.7760    -1.1590     0.5920 ha         1 ZIL       0.116500
     35 H22          0.8570    -0.0770     0.4880 hn         1 ZIL       0.353500
     36 H9          -0.8760    -0.9300    -1.6860 h1         1 ZIL       0.069700
     37 H5           0.1360    -3.1160    -0.9750 hc         1 ZIL       0.037700
     38 H3          -1.8780    -4.4670    -0.7150 hc         1 ZIL       0.066700
     39 H4          -2.8450    -3.0690    -0.3060 hc         1 ZIL       0.066700
     40 H6          -1.2070    -2.6900     1.7450 hc         1 ZIL       0.042700
     41 H7          -0.3490    -4.1460     1.2060 hc         1 ZIL       0.042700
     42 H8           0.5420    -2.6350     1.4320 hc         1 ZIL       0.042700
     43 H           -3.1310    -3.8170    -2.6970 hc         1 ZIL       0.023700
     44 H1          -2.5260    -2.1540    -2.6300 hc         1 ZIL       0.023700
     45 H2          -1.4140    -3.4910    -3.0080 hc         1 ZIL       0.023700
     46 H10         -3.1560    -0.9560    -1.0750 hn         1 ZIL       0.298500
     47 H11         -3.9040     0.6040     1.3690 h1         1 ZIL       0.065700
     48 H12         -4.7470     1.2840    -1.4980 hc         1 ZIL       0.048700
     49 H13         -5.4710     1.9870    -0.0640 hc         1 ZIL       0.048700
     50 H14         -2.5180     2.2980    -0.8120 hc         1 ZIL       0.032700
     51 H15         -3.0810     4.5960    -1.5430 hc         1 ZIL       0.024867
     52 H16         -3.9530     3.3920    -2.5080 hc         1 ZIL       0.024867
     53 H17         -4.8050     4.2910    -1.2340 hc         1 ZIL       0.024867
     54 H18         -4.1760     3.7720     1.3120 hc         1 ZIL       0.024867
     55 H19         -2.8830     2.5990     1.6350 hc         1 ZIL       0.024867
     56 H20         -2.4970     4.1450     0.8690 hc         1 ZIL       0.024867
@<TRIPOS>BOND
     1     1     2 2   
     2     1     3 1   
     3     1    11 1   
     4     3     4 1   
     5     4     5 1   
     6     4    28 1   
     7     4    29 1   
     8     5     6 ar  
     9     5    10 ar  
    10     6     7 ar  
    11     6    30 1   
    12     7     8 ar  
    13     7    31 1   
    14     8     9 ar  
    15     8    32 1   
    16     9    10 ar  
    17     9    33 1   
    18    10    34 1   
    19    11    12 1   
    20    11    35 1   
    21    12    13 1   
    22    12    15 1   
    23    12    36 1   
    24    13    14 2   
    25    13    19 1   
    26    15    16 1   
    27    15    17 1   
    28    15    37 1   
    29    16    18 1   
    30    16    38 1   
    31    16    39 1   
    32    17    40 1   
    33    17    41 1   
    34    17    42 1   
    35    18    43 1   
    36    18    44 1   
    37    18    45 1   
    38    19    20 1   
    39    19    46 1   
    40    20    21 1   
    41    20    23 1   
    42    20    47 1   
    43    21    22 1   
    44    21    27 1   
    45    23    24 1   
    46    23    48 1   
    47    23    49 1   
    48    24    25 1   
    49    24    26 1   
    50    24    50 1   
    51    25    51 1   
    52    25    52 1   
    53    25    53 1   
    54    26    54 1   
    55    26    55 1   
    56    26    56 1   
@<TRIPOS>SUBSTRUCTURE
     1 ZIL         1 TEMP              0 ****  ****    0 ROOT
