@<TRIPOS>MOLECULE
ZIM
   39    41     1     0     0
SMALL
No Charge or Current Charge


@<TRIPOS>ATOM
      1 N1         -16.6040    17.9540    26.3740 ns         1 ZIM      -0.165000
      2 N3         -19.7790    13.9320    25.7310 n          1 ZIM      -0.407800
      3 C4         -14.4600    20.7170    27.7920 ca         1 ZIM      -0.078000
      4 C5         -15.2400    19.5480    27.7330 ca         1 ZIM      -0.125000
      5 C6         -15.8060    19.1250    26.5070 ca         1 ZIM       0.008000
      6 C7         -17.0430    17.0010    27.2830 c          1 ZIM       0.670100
      7 C8         -18.3750    16.0240    25.3460 c6         1 ZIM       0.090500
      8 C10        -19.0620    13.7220    27.0180 c6         1 ZIM       0.087000
      9 C13        -21.6960    12.3880    26.1950 cc         1 ZIM       0.061500
     10 C15        -23.3890    11.1880    27.0340 cd         1 ZIM      -0.195000
     11 Cl1        -16.2520    19.4170    23.7930 cl         1 ZIM      -0.225000
     12 C1         -15.5700    19.8990    25.3480 ca         1 ZIM       0.061000
     13 C2         -14.7900    21.0660    25.4110 ca         1 ZIM      -0.073000
     14 C3         -14.2350    21.4760    26.6330 ca         1 ZIM      -0.133000
     15 O1         -16.7780    17.0320    28.4780 o          1 ZIM      -0.623100
     16 N2         -17.8370    15.9600    26.7420 n          1 ZIM      -0.432800
     17 C9         -18.9370    14.6970    24.7760 c6         1 ZIM       0.087000
     18 C11        -18.5560    15.0330    27.6620 c6         1 ZIM       0.090500
     19 O2         -20.7350    12.7090    24.0360 o          1 ZIM      -0.595100
     20 C14        -22.6090    11.4140    25.8810 cd         1 ZIM      -0.102000
     21 C16        -22.9380    12.0410    28.0030 cc         1 ZIM       0.146900
     22 O3         -21.9030    12.7980    27.5010 os         1 ZIM      -0.249000
     23 H5         -16.9110    17.7870    25.4270 hn         1 ZIM       0.161000
     24 H3         -14.0280    21.0330    28.7400 ha         1 ZIM       0.120000
     25 H4         -15.3890    18.9870    28.6500 ha         1 ZIM       0.147000
     26 H6         -19.1810    16.7720    25.3290 h1         1 ZIM       0.061950
     27 H7         -17.5960    16.3730    24.6530 h1         1 ZIM       0.061950
     28 H10        -19.6570    13.1760    27.7560 h1         1 ZIM       0.067450
     29 H11        -18.1860    13.0880    26.8140 h1         1 ZIM       0.067450
     30 H15        -24.2030    10.4780    27.1380 ha         1 ZIM       0.148000
     31 H1         -14.6180    21.6520    24.5120 ha         1 ZIM       0.129000
     32 H2         -13.6310    22.3800    26.6820 ha         1 ZIM       0.121000
     33 H9         -19.5120    14.9270    23.8670 h1         1 ZIM       0.067450
     34 H8         -18.0940    14.0610    24.4710 h1         1 ZIM       0.067450
     35 H13        -19.4200    15.5680    28.0800 h1         1 ZIM       0.061950
     36 H12        -17.9040    14.7680    28.5070 h1         1 ZIM       0.061950
     37 H14        -22.7100    10.9180    24.9200 ha         1 ZIM       0.157000
     38 H16        -23.2440    12.2100    29.0270 h4         1 ZIM       0.056100
     39 C12        -20.7150    12.9870    25.2310 c          1 ZIM       0.544600
@<TRIPOS>BOND
     1     1     5 1   
     2     1     6 1   
     3     1    23 1   
     4     2     8 1   
     5     2    17 1   
     6     2    39 1   
     7     3     4 ar  
     8     3    14 ar  
     9     3    24 1   
    10     4     5 ar  
    11     4    25 1   
    12     5    12 ar  
    13     6    15 2   
    14     6    16 1   
    15     7    16 1   
    16     7    17 1   
    17     7    26 1   
    18     7    27 1   
    19     8    18 1   
    20     8    28 1   
    21     8    29 1   
    22     9    20 2   
    23     9    22 1   
    24     9    39 1   
    25    10    20 1   
    26    10    21 2   
    27    10    30 1   
    28    11    12 1   
    29    12    13 ar  
    30    13    14 ar  
    31    13    31 1   
    32    14    32 1   
    33    16    18 1   
    34    17    33 1   
    35    17    34 1   
    36    18    35 1   
    37    18    36 1   
    38    19    39 2   
    39    20    37 1   
    40    21    22 1   
    41    21    38 1   
@<TRIPOS>SUBSTRUCTURE
     1 ZIM         1 TEMP              0 ****  ****    0 ROOT
