@<TRIPOS>MOLECULE
ZIM
   39    41     1     0     0
SMALL
abcg2


@<TRIPOS>ATOM
      1 N1         -16.9390    18.0890    26.2140 ns         1 ZIM      -0.165000
      2 N3         -19.5380    13.8550    25.7640 n          1 ZIM      -0.407800
      3 C4         -14.0300    19.9480    27.5980 ca         1 ZIM      -0.078000
      4 C5         -15.0040    18.9700    27.4530 ca         1 ZIM      -0.125000
      5 C6         -15.9610    19.0580    26.4350 ca         1 ZIM       0.008000
      6 C7         -17.4470    17.1970    27.1410 c          1 ZIM       0.670100
      7 C8         -18.6230    16.0640    25.2250 c6         1 ZIM       0.090500
      8 C10        -19.1160    13.9920    27.1560 c6         1 ZIM       0.087000
      9 C13        -21.4360    12.3600    26.1770 cc         1 ZIM       0.061500
     10 C15        -23.0140    11.0960    27.1400 cd         1 ZIM      -0.195000
     11 CL1        -17.0440    20.3120    24.2610 cl         1 ZIM      -0.225000
     12 C1         -15.8830    20.1590    25.5670 ca         1 ZIM       0.061000
     13 C2         -14.9060    21.1330    25.7040 ca         1 ZIM      -0.073000
     14 C3         -13.9740    21.0330    26.7290 ca         1 ZIM      -0.133000
     15 O1         -17.1710    17.2640    28.3380 o          1 ZIM      -0.623100
     16 N2         -18.2730    16.2330    26.6320 n          1 ZIM      -0.432800
     17 C9         -18.6700    14.5850    24.8490 c6         1 ZIM       0.087000
     18 C11        -19.1010    15.4590    27.5540 c6         1 ZIM       0.090500
     19 O2         -20.5020    12.6870    24.0700 o          1 ZIM      -0.595100
     20 C14        -22.1300    11.1960    26.0260 cd         1 ZIM      -0.102000
     21 C16        -22.8100    12.2120    27.8870 cc         1 ZIM       0.146900
     22 O3         -21.8540    12.9930    27.3200 os         1 ZIM      -0.249000
     23 H5         -17.4250    18.1780    25.3370 hn         1 ZIM       0.161000
     24 H3         -13.3050    19.8540    28.3960 ha         1 ZIM       0.120000
     25 H4         -15.0370    18.1290    28.1260 ha         1 ZIM       0.147000
     26 H6         -19.5970    16.5240    25.0230 h1         1 ZIM       0.061950
     27 H7         -17.8800    16.5320    24.5850 h1         1 ZIM       0.061950
     28 H10        -19.7710    13.4380    27.8150 h1         1 ZIM       0.067450
     29 H11        -18.1050    13.5800    27.2450 h1         1 ZIM       0.067450
     30 H15        -23.7100    10.3020    27.3530 ha         1 ZIM       0.148000
     31 H1         -14.8830    21.9610    25.0100 ha         1 ZIM       0.129000
     32 H2         -13.2130    21.7940    26.8400 ha         1 ZIM       0.121000
     33 H9         -19.0500    14.4750    23.8380 h1         1 ZIM       0.067450
     34 H8         -17.6610    14.1610    24.8910 h1         1 ZIM       0.067450
     35 H13        -20.1240    15.8500    27.5420 h1         1 ZIM       0.061950
     36 H12        -18.6950    15.5690    28.5550 h1         1 ZIM       0.061950
     37 H14        -22.0170    10.4970    25.2140 ha         1 ZIM       0.157000
     38 H16        -23.2460    12.5870    28.7980 h4         1 ZIM       0.056100
     39 C12        -20.4480    12.9790    25.2710 c          1 ZIM       0.544600
@<TRIPOS>BOND
     1     1     5 1   
     2     1     6 1   
     3     1    23 1   
     4     2     8 1   
     5     2    17 1   
     6     2    39 1   
     7     3     4 ar  
     8     3    14 ar  
     9     3    24 1   
    10     4     5 ar  
    11     4    25 1   
    12     5    12 ar  
    13     6    15 2   
    14     6    16 1   
    15     7    16 1   
    16     7    17 1   
    17     7    26 1   
    18     7    27 1   
    19     8    18 1   
    20     8    28 1   
    21     8    29 1   
    22     9    20 2   
    23     9    22 1   
    24     9    39 1   
    25    10    20 1   
    26    10    21 2   
    27    10    30 1   
    28    11    12 1   
    29    12    13 ar  
    30    13    14 ar  
    31    13    31 1   
    32    14    32 1   
    33    16    18 1   
    34    17    33 1   
    35    17    34 1   
    36    18    35 1   
    37    18    36 1   
    38    19    39 2   
    39    20    37 1   
    40    21    22 1   
    41    21    38 1   
@<TRIPOS>SUBSTRUCTURE
     1 ZIM         1 TEMP              0 ****  ****    0 ROOT
