@<TRIPOS>MOLECULE
ZIN
   30    32     1     0     0
SMALL
abcg2


@<TRIPOS>ATOM
      1 CAA          0.1280     0.6460     0.8290 ca         1 ZIN      -0.128300
      2 CAB         -0.7840    -0.3710     0.9800 ca         1 ZIN       0.194100
      3 CAC          1.4960     0.5940     1.4530 c3         1 ZIN      -0.065400
      4 CAD         -2.0620    -0.2840     0.3580 ca         1 ZIN       0.189000
      5 CAF         -0.2280     1.7600     0.0340 ca         1 ZIN      -0.055000
      6 NAG         -2.9040    -1.3180     0.5660 nb         1 ZIN      -0.687000
      7 CAH          2.5480     0.1850     0.4540 ca         1 ZIN       0.353300
      8 NAI          2.3920    -0.9960    -0.1390 nb         1 ZIN      -0.657000
      9 CAJ         -2.3950     0.8410    -0.4260 ca         1 ZIN      -0.038000
     10 CAK         -1.4450     1.8730    -0.5810 ca         1 ZIN      -0.143000
     11 OAM         -0.5130    -1.4550     1.7190 oh         1 ZIN      -0.516100
     12 CAT         -4.0880    -1.2770     0.0130 ca         1 ZIN       0.351900
     13 CAU          3.2990    -1.3840    -1.0250 ca         1 ZIN       0.340900
     14 CAV          3.6250     1.0180     0.1680 ca         1 ZIN      -0.165000
     15 CAW         -3.6820     0.8490    -1.0080 ca         1 ZIN      -0.064000
     16 CAY         -4.5260    -0.2050    -0.7910 ca         1 ZIN      -0.159000
     17 CAZ          4.4060    -0.6250    -1.3750 ca         1 ZIN      -0.170000
     18 CBA          4.5690     0.6070    -0.7610 ca         1 ZIN      -0.072000
     19 HAC          1.7480     1.5760     1.8580 hc         1 ZIN       0.063700
     20 HACA         1.5120    -0.1030     2.2930 hc         1 ZIN       0.063700
     21 HAF          0.5010     2.5540    -0.0820 ha         1 ZIN       0.113000
     22 HAK         -1.6870     2.7420    -1.1790 ha         1 ZIN       0.118000
     23 HOAM        -1.3090    -2.0130     1.7080 ho         1 ZIN       0.495000
     24 HAT         -4.7470    -2.1180     0.1960 h4         1 ZIN       0.020100
     25 HAU          3.1380    -2.3540    -1.4850 h4         1 ZIN       0.018100
     26 HAV          3.7190     1.9740     0.6660 ha         1 ZIN       0.119000
     27 HAW         -3.9870     1.6900    -1.6180 ha         1 ZIN       0.120000
     28 HAY         -5.5170    -0.2290    -1.2220 ha         1 ZIN       0.124000
     29 HAZ          5.1140    -0.9920    -2.1060 ha         1 ZIN       0.122000
     30 HBA          5.4130     1.2390    -1.0020 ha         1 ZIN       0.116000
@<TRIPOS>BOND
     1     1     2 ar  
     2     1     3 1   
     3     1     5 ar  
     4     2     4 ar  
     5     2    11 1   
     6     3     7 1   
     7     3    19 1   
     8     3    20 1   
     9     4     6 ar  
    10     4     9 ar  
    11     5    10 ar  
    12     5    21 1   
    13     6    12 ar  
    14     7     8 ar  
    15     7    14 ar  
    16     8    13 ar  
    17     9    10 ar  
    18     9    15 ar  
    19    10    22 1   
    20    11    23 1   
    21    12    16 ar  
    22    12    24 1   
    23    13    17 ar  
    24    13    25 1   
    25    14    18 ar  
    26    14    26 1   
    27    15    16 ar  
    28    15    27 1   
    29    16    28 1   
    30    17    18 ar  
    31    17    29 1   
    32    18    30 1   
@<TRIPOS>SUBSTRUCTURE
     1 ZIN         1 TEMP              0 ****  ****    0 ROOT
