@<TRIPOS>MOLECULE
ZIN
   30    32     1     0     0
SMALL
No Charge or Current Charge


@<TRIPOS>ATOM
      1 CAA          0.1750     0.7170     0.9900 ca         1 ZIN      -0.128300
      2 CAB         -0.6390    -0.3940     0.6740 ca         1 ZIN       0.194100
      3 CAC          1.5790     0.5340     1.5750 c3         1 ZIN      -0.065400
      4 CAD         -1.9350    -0.2240     0.1240 ca         1 ZIN       0.189000
      5 CAF         -0.3160     2.0150     0.7530 ca         1 ZIN      -0.055000
      6 NAG         -2.6960    -1.3160    -0.1710 nb         1 ZIN      -0.687000
      7 CAH          2.5930     0.0170     0.5580 ca         1 ZIN       0.353300
      8 NAI          3.4730    -0.9130     1.0020 nb         1 ZIN      -0.657000
      9 CAJ         -2.4030     1.0950    -0.1040 ca         1 ZIN      -0.038000
     10 CAK         -1.5960     2.2030     0.2090 ca         1 ZIN      -0.143000
     11 OAM         -0.1940    -1.6700     0.8910 oh         1 ZIN      -0.516100
     12 CAT         -3.9300    -1.1230    -0.6950 ca         1 ZIN       0.351900
     13 CAU          4.3940    -1.3870     0.1310 ca         1 ZIN       0.340900
     14 CAV          2.6210     0.5110    -0.7630 ca         1 ZIN      -0.165000
     15 CAW         -3.6850     1.2850    -0.6500 ca         1 ZIN      -0.064000
     16 CAY         -4.4580     0.1520    -0.9490 ca         1 ZIN      -0.159000
     17 CAZ          4.4800    -0.9520    -1.2020 ca         1 ZIN      -0.170000
     18 CBA          3.5780     0.0190    -1.6640 ca         1 ZIN      -0.072000
     19 HAC          1.9470     1.4840     1.9820 hc         1 ZIN       0.063700
     20 HACA         1.5270    -0.1450     2.4350 hc         1 ZIN       0.063700
     21 HAF          0.2960     2.8840     0.9870 ha         1 ZIN       0.113000
     22 HAK         -1.9590     3.2130     0.0310 ha         1 ZIN       0.118000
     23 HOAM        -0.9360    -2.2450     0.5930 ho         1 ZIN       0.495000
     24 HAT         -4.5090    -2.0180    -0.9180 h4         1 ZIN       0.020100
     25 HAU          5.0850    -2.1370     0.5160 h4         1 ZIN       0.018100
     26 HAV          1.9100     1.2680    -1.0820 ha         1 ZIN       0.119000
     27 HAW         -4.0730     2.2840    -0.8370 ha         1 ZIN       0.120000
     28 HAY         -5.4540     0.2540    -1.3710 ha         1 ZIN       0.124000
     29 HAZ          5.2390    -1.3650    -1.8610 ha         1 ZIN       0.122000
     30 HBA          3.6210     0.3800    -2.6890 ha         1 ZIN       0.116000
@<TRIPOS>BOND
     1     1     2 ar  
     2     1     3 1   
     3     1     5 ar  
     4     2     4 ar  
     5     2    11 1   
     6     3     7 1   
     7     3    19 1   
     8     3    20 1   
     9     4     6 ar  
    10     4     9 ar  
    11     5    10 ar  
    12     5    21 1   
    13     6    12 ar  
    14     7     8 ar  
    15     7    14 ar  
    16     8    13 ar  
    17     9    10 ar  
    18     9    15 ar  
    19    10    22 1   
    20    11    23 1   
    21    12    16 ar  
    22    12    24 1   
    23    13    17 ar  
    24    13    25 1   
    25    14    18 ar  
    26    14    26 1   
    27    15    16 ar  
    28    15    27 1   
    29    16    28 1   
    30    17    18 ar  
    31    17    29 1   
    32    18    30 1   
@<TRIPOS>SUBSTRUCTURE
     1 ZIN         1 TEMP              0 ****  ****    0 ROOT
