@<TRIPOS>MOLECULE
ZIO
  109   112     1     0     0
SMALL
abcg2


@<TRIPOS>ATOM
      1 C10         42.4300    53.4670    28.6090 c3         1 ZIO      -0.192700
      2 C11         43.6370    53.2920    29.5640 c3         1 ZIO       0.178300
      3 C12         43.3050    53.4660    31.0520 c3         1 ZIO      -0.055700
      4 C13         44.5530    53.1210    31.8770 c3         1 ZIO       0.177300
      5 O2          44.8160    51.7020    31.6470 os         1 ZIO      -0.469100
      6 C2          46.1030    49.8620    30.9460 c3         1 ZIO      -0.131700
      7 C3          46.0900    49.9080    29.3780 c3         1 ZIO       0.195300
      8 C4          45.1730    48.8380    28.7590 c3         1 ZIO      -0.079700
      9 C5          45.0710    49.0070    27.2240 c3         1 ZIO       0.179300
     10 C6          44.4530    50.3360    26.7450 c3         1 ZIO      -0.052700
     11 C7          42.9740    50.4540    27.1480 c3         1 ZIO      -0.054400
     12 C8          42.2960    51.7320    26.6940 cx         1 ZIO      -0.002000
     13 C9          42.8890    53.0140    27.2390 c          1 ZIO       0.587100
     14 O11         43.7480    53.6140    26.6180 o          1 ZIO      -0.518100
     15 C1          46.0720    51.2920    31.4390 c          1 ZIO       0.586100
     16 O1          47.0480    52.0000    31.5720 o          1 ZIO      -0.487000
     17 O3          47.4190    49.7720    28.8870 os         1 ZIO      -0.497000
     18 O7          44.2840    47.9290    26.6730 os         1 ZIO      -0.440000
     19 C34         41.8770    54.8930    28.5680 c3         1 ZIO      -0.074100
     20 C33         41.5230    51.8000    25.4570 cx         1 ZIO       0.108600
     21 C35         42.0750    52.6600    31.4720 c3         1 ZIO      -0.086100
     22 O12         44.6890    54.2040    29.2450 oh         1 ZIO      -0.675000
     23 C36         44.4340    53.3710    33.3670 c3         1 ZIO      -0.106100
     24 C30         47.2950    49.1190    31.5460 c3         1 ZIO      -0.070100
     25 C32         44.6430    50.5180    25.2390 c3         1 ZIO      -0.089100
     26 C22         44.9800    46.9460    25.9810 c6         1 ZIO       0.395300
     27 C23         44.1070    45.7040    25.8510 c6         1 ZIO       0.150300
     28 C24         44.8620    44.6490    25.0350 c6         1 ZIO       0.138500
     29 C25         45.2810    45.2240    23.6810 c6         1 ZIO      -0.132400
     30 C26         46.0600    46.5200    23.8890 c6         1 ZIO       0.182300
     31 O9          45.2820    47.4350    24.6800 os         1 ZIO      -0.500000
     32 N1          44.0920    43.4000    25.0310 n3         1 ZIO      -0.741600
     33 C27         46.3930    47.2220    22.5890 c3         1 ZIO      -0.088100
     34 O8          43.7840    45.1730    27.1280 oh         1 ZIO      -0.715000
     35 C28         44.9200    42.2250    24.7910 c3         1 ZIO       0.153600
     36 C14         48.0220    50.8780    28.2500 c6         1 ZIO       0.391300
     37 C15         49.4240    51.0690    28.8030 c6         1 ZIO      -0.133400
     38 C16         50.3300    49.8980    28.4330 c6         1 ZIO       0.174300
     39 C17         50.2960    49.6750    26.9310 c6         1 ZIO       0.146300
     40 C18         48.8460    49.5620    26.4280 c6         1 ZIO       0.140300
     41 O4          48.0620    50.6910    26.8480 os         1 ZIO      -0.473000
     42 O5          51.6800    50.1430    28.8160 os         1 ZIO      -0.456000
     43 O6          51.0060    48.4690    26.6440 oh         1 ZIO      -0.714000
     44 O10         40.8580    51.7170    26.7400 op         1 ZIO      -0.447000
     45 C20         51.9290    49.9460    30.1990 c3         1 ZIO       0.147900
     46 C29         42.9190    43.4050    24.1630 c3         1 ZIO       0.153600
     47 C21         48.7510    49.5020    24.9190 c3         1 ZIO      -0.095100
     48 C31         45.6060    47.4220    29.1450 c3         1 ZIO      -0.093100
     49 H10         41.6500    52.7820    28.9340 hc         1 ZIO       0.085700
     50 H11         43.9990    52.2670    29.4320 h1         1 ZIO       0.033700
     51 H12         43.1140    54.5290    31.2300 hc         1 ZIO       0.069700
     52 H13         45.4000    53.6740    31.4810 h1         1 ZIO       0.086700
     53 HB          45.1720    49.3930    31.2650 hc         1 ZIO       0.080700
     54 H3          45.7130    50.8860    29.0770 h1         1 ZIO       0.039700
     55 H4          44.1810    49.0140    29.1840 hc         1 ZIO       0.061700
     56 H5          46.0750    48.9470    26.8050 h1         1 ZIO       0.064700
     57 H6          45.0070    51.1380    27.2370 hc         1 ZIO       0.046700
     58 H7C1        42.8690    50.3860    28.2340 hc         1 ZIO       0.067700
     59 H7C2        42.4090    49.6250    26.7170 hc         1 ZIO       0.067700
     60 H341        41.0260    54.9510    27.8880 hc         1 ZIO       0.047033
     61 H342        42.6360    55.5970    28.2320 hc         1 ZIO       0.047033
     62 H343        41.5390    55.1950    29.5600 hc         1 ZIO       0.047033
     63 H331        41.4370    50.9120    24.8410 h1         1 ZIO       0.086700
     64 H332        41.4090    52.7490    24.9450 h1         1 ZIO       0.086700
     65 H351        42.1740    51.6110    31.1840 hc         1 ZIO       0.041367
     66 H352        41.1700    53.0540    31.0120 hc         1 ZIO       0.041367
     67 H353        41.9340    52.7010    32.5510 hc         1 ZIO       0.041367
     68 HA          44.8000    54.2010    28.2820 ho         1 ZIO       0.466000
     69 H361        43.6810    52.7280    33.8240 hc         1 ZIO       0.048367
     70 H362        44.1560    54.4110    33.5430 hc         1 ZIO       0.048367
     71 H363        45.3910    53.1830    33.8570 hc         1 ZIO       0.048367
     72 H301        47.3680    48.1070    31.1540 hc         1 ZIO       0.047367
     73 H302        47.1830    49.0600    32.6300 hc         1 ZIO       0.047367
     74 H303        48.2240    49.6370    31.3240 hc         1 ZIO       0.047367
     75 H321        45.6930    50.4010    24.9730 hc         1 ZIO       0.044367
     76 H322        44.3270    51.5130    24.9280 hc         1 ZIO       0.044367
     77 H323        44.0720    49.7800    24.6780 hc         1 ZIO       0.044367
     78 H22         45.9190    46.6960    26.4920 h2         1 ZIO       0.032700
     79 H23         43.1940    46.0110    25.3270 h1         1 ZIO       0.059700
     80 H24         45.7730    44.4250    25.6010 h1         1 ZIO       0.061700
     81 H251        44.4040    45.4380    23.0650 hc         1 ZIO       0.057200
     82 H252        45.9040    44.5090    23.1390 hc         1 ZIO       0.057200
     83 H26         46.9860    46.2980    24.4370 h1         1 ZIO       0.033700
     84 H271        45.4780    47.4660    22.0450 hc         1 ZIO       0.046700
     85 H272        47.0060    46.5740    21.9610 hc         1 ZIO       0.046700
     86 H273        46.9440    48.1440    22.7760 hc         1 ZIO       0.046700
     87 H8          43.6470    44.2230    26.9580 ho         1 ZIO       0.528000
     88 H281        44.3210    41.3250    24.9390 h1         1 ZIO       0.035700
     89 H282        45.7510    42.2080    25.4980 h1         1 ZIO       0.035700
     90 H283        45.3320    42.1920    23.7710 h1         1 ZIO       0.035700
     91 H14         47.4150    51.7720    28.4010 h2         1 ZIO       0.076700
     92 H151        49.3650    51.1930    29.8830 hc         1 ZIO       0.073700
     93 H152        49.8400    51.9850    28.3770 hc         1 ZIO       0.073700
     94 H16         49.9790    48.9820    28.9250 h1         1 ZIO       0.060700
     95 H17         50.7810    50.5270    26.4410 h1         1 ZIO       0.052700
     96 H18         48.4150    48.6520    26.8600 h1         1 ZIO       0.057700
     97 HC          51.2810    48.4830    25.7200 ho         1 ZIO       0.501000
     98 H201        51.6410    48.9340    30.5080 h1         1 ZIO       0.030700
     99 H202        51.3920    50.6690    30.8210 h1         1 ZIO       0.030700
    100 H203        52.9990    50.0760    30.3520 h1         1 ZIO       0.030700
    101 H291        42.3190    42.5190    24.3740 h1         1 ZIO       0.035700
    102 H292        43.1780    43.3930    23.0940 h1         1 ZIO       0.035700
    103 H293        42.3050    44.2840    24.3560 h1         1 ZIO       0.035700
    104 H211        47.7110    49.4050    24.6130 hc         1 ZIO       0.046033
    105 H212        49.2950    48.6400    24.5330 hc         1 ZIO       0.046033
    106 H213        49.1640    50.4090    24.4730 hc         1 ZIO       0.046033
    107 H311        45.5640    47.2890    30.2260 hc         1 ZIO       0.047033
    108 H312        46.6270    47.2210    28.8170 hc         1 ZIO       0.047033
    109 H313        44.9480    46.6820    28.6970 hc         1 ZIO       0.047033
@<TRIPOS>BOND
     1     1     2 1   
     2     1    13 1   
     3     1    19 1   
     4     1    49 1   
     5     2     3 1   
     6     2    22 1   
     7     2    50 1   
     8     3     4 1   
     9     3    21 1   
    10     3    51 1   
    11     4     5 1   
    12     4    23 1   
    13     4    52 1   
    14     5    15 1   
    15     6     7 1   
    16     6    15 1   
    17     6    24 1   
    18     6    53 1   
    19     7     8 1   
    20     7    17 1   
    21     7    54 1   
    22     8     9 1   
    23     8    48 1   
    24     8    55 1   
    25     9    10 1   
    26     9    18 1   
    27     9    56 1   
    28    10    11 1   
    29    10    25 1   
    30    10    57 1   
    31    11    12 1   
    32    11    58 1   
    33    11    59 1   
    34    12    13 1   
    35    12    20 1   
    36    12    44 1   
    37    13    14 2   
    38    15    16 2   
    39    17    36 1   
    40    18    26 1   
    41    19    60 1   
    42    19    61 1   
    43    19    62 1   
    44    20    44 1   
    45    20    63 1   
    46    20    64 1   
    47    21    65 1   
    48    21    66 1   
    49    21    67 1   
    50    22    68 1   
    51    23    69 1   
    52    23    70 1   
    53    23    71 1   
    54    24    72 1   
    55    24    73 1   
    56    24    74 1   
    57    25    75 1   
    58    25    76 1   
    59    25    77 1   
    60    26    27 1   
    61    26    31 1   
    62    26    78 1   
    63    27    28 1   
    64    27    34 1   
    65    27    79 1   
    66    28    29 1   
    67    28    32 1   
    68    28    80 1   
    69    29    30 1   
    70    29    81 1   
    71    29    82 1   
    72    30    31 1   
    73    30    33 1   
    74    30    83 1   
    75    32    35 1   
    76    32    46 1   
    77    33    84 1   
    78    33    85 1   
    79    33    86 1   
    80    34    87 1   
    81    35    88 1   
    82    35    89 1   
    83    35    90 1   
    84    36    37 1   
    85    36    41 1   
    86    36    91 1   
    87    37    38 1   
    88    37    92 1   
    89    37    93 1   
    90    38    39 1   
    91    38    42 1   
    92    38    94 1   
    93    39    40 1   
    94    39    43 1   
    95    39    95 1   
    96    40    41 1   
    97    40    47 1   
    98    40    96 1   
    99    42    45 1   
   100    43    97 1   
   101    45    98 1   
   102    45    99 1   
   103    45   100 1   
   104    46   101 1   
   105    46   102 1   
   106    46   103 1   
   107    47   104 1   
   108    47   105 1   
   109    47   106 1   
   110    48   107 1   
   111    48   108 1   
   112    48   109 1   
@<TRIPOS>SUBSTRUCTURE
     1 ZIO         1 TEMP              0 ****  ****    0 ROOT
