@<TRIPOS>MOLECULE
ZIO
  109   112     1     0     0
SMALL
No Charge or Current Charge


@<TRIPOS>ATOM
      1 C10         42.4130    53.5440    28.2250 c3         1 ZIO      -0.192700
      2 C11         43.6060    53.4870    29.2150 c3         1 ZIO       0.178300
      3 C12         43.2920    53.7610    30.7260 c3         1 ZIO      -0.055700
      4 C13         44.5640    53.4610    31.5810 c3         1 ZIO       0.177300
      5 O2          44.8070    52.0460    31.4650 os         1 ZIO      -0.469100
      6 C2          46.1240    50.0830    31.1330 c3         1 ZIO      -0.131700
      7 C3          46.1380    49.9220    29.5750 c3         1 ZIO       0.195300
      8 C4          45.1550    48.8320    29.0190 c3         1 ZIO      -0.079700
      9 C5          45.1000    48.8860    27.4260 c3         1 ZIO       0.179300
     10 C6          44.4810    50.1730    26.7730 c3         1 ZIO      -0.052700
     11 C7          42.9680    50.3860    27.1070 c3         1 ZIO      -0.054400
     12 C8          42.3130    51.6170    26.4630 cx         1 ZIO      -0.002000
     13 C9          42.8600    52.9830    26.8630 c          1 ZIO       0.587100
     14 O11         43.6650    53.5880    26.1640 o          1 ZIO      -0.518100
     15 C1          46.0920    51.5760    31.4890 c          1 ZIO       0.586100
     16 O1          47.0810    52.2650    31.6920 o          1 ZIO      -0.487000
     17 O3          47.4620    49.5990    29.0960 os         1 ZIO      -0.497000
     18 O7          44.3460    47.7590    26.9310 os         1 ZIO      -0.440000
     19 C34         41.7370    54.9370    28.0900 c3         1 ZIO      -0.074100
     20 C33         41.7060    51.5150    25.0870 cx         1 ZIO       0.108600
     21 C35         42.0400    52.9910    31.2420 c3         1 ZIO      -0.086100
     22 O12         44.6070    54.4100    28.7700 oh         1 ZIO      -0.675000
     23 C36         44.4610    53.8110    33.0820 c3         1 ZIO      -0.106100
     24 C30         47.1910    49.2910    31.9450 c3         1 ZIO      -0.070100
     25 C32         44.7410    50.1720    25.2410 c3         1 ZIO      -0.089100
     26 C22         45.1020    46.6150    26.4800 c6         1 ZIO       0.395300
     27 C23         44.1670    45.4160    26.1090 c6         1 ZIO       0.150300
     28 C24         45.0500    44.2400    25.6080 c6         1 ZIO       0.138500
     29 C25         45.9270    44.7090    24.4140 c6         1 ZIO      -0.132400
     30 C26         46.7450    45.9620    24.8290 c6         1 ZIO       0.182300
     31 O9          45.8590    46.9910    25.3080 os         1 ZIO      -0.500000
     32 N1          44.2330    43.0060    25.3500 n3         1 ZIO      -0.741600
     33 C27         47.5460    46.5670    23.6540 c3         1 ZIO      -0.088100
     34 O8          43.3430    44.9200    27.1830 oh         1 ZIO      -0.715000
     35 C28         45.0510    41.7760    25.2250 c3         1 ZIO       0.153600
     36 C14         48.4710    50.6280    29.1310 c6         1 ZIO       0.391300
     37 C15         49.8470    50.0320    28.7570 c6         1 ZIO      -0.133400
     38 C16         49.8810    49.6140    27.2650 c6         1 ZIO       0.174300
     39 C17         49.4830    50.8210    26.3690 c6         1 ZIO       0.146300
     40 C18         48.0870    51.3370    26.8210 c6         1 ZIO       0.140300
     41 O4          48.1200    51.6950    28.2220 os         1 ZIO      -0.473000
     42 O5          51.1760    49.1110    26.8570 os         1 ZIO      -0.456000
     43 O6          49.5100    50.4430    24.9780 oh         1 ZIO      -0.714000
     44 O10         40.8750    51.5310    26.2710 op         1 ZIO      -0.447000
     45 C20         51.6340    47.8880    27.4630 c3         1 ZIO       0.147900
     46 C29         43.2360    43.1210    24.2530 c3         1 ZIO       0.153600
     47 C21         47.6150    52.5980    26.0560 c3         1 ZIO      -0.095100
     48 C31         45.4270    47.4120    29.6550 c3         1 ZIO      -0.093100
     49 H10         41.6510    52.8470    28.5870 hc         1 ZIO       0.085700
     50 H11         44.0080    52.4670    29.1460 h1         1 ZIO       0.033700
     51 H12         43.0760    54.8310    30.8310 hc         1 ZIO       0.069700
     52 H13         45.3940    54.0430    31.1550 h1         1 ZIO       0.086700
     53 HB          45.1370    49.7050    31.4200 hc         1 ZIO       0.080700
     54 H3          45.8170    50.8800    29.1490 h1         1 ZIO       0.039700
     55 H4          44.1540    49.1080    29.3670 hc         1 ZIO       0.061700
     56 H5          46.1370    48.8100    27.0730 h1         1 ZIO       0.064700
     57 H6          45.0240    51.0380    27.1660 hc         1 ZIO       0.046700
     58 H7C1        42.8490    50.4710    28.1930 hc         1 ZIO       0.067700
     59 H7C2        42.4070    49.4890    26.8170 hc         1 ZIO       0.067700
     60 H341        40.8820    54.8810    27.4050 hc         1 ZIO       0.047033
     61 H342        42.4360    55.6860    27.6970 hc         1 ZIO       0.047033
     62 H343        41.3670    55.2900    29.0590 hc         1 ZIO       0.047033
     63 H331        41.7430    50.5630    24.5570 h1         1 ZIO       0.086700
     64 H332        41.6450    52.4060    24.4620 h1         1 ZIO       0.086700
     65 H351        42.1450    51.9110    31.0810 hc         1 ZIO       0.041367
     66 H352        41.1300    53.3290    30.7340 hc         1 ZIO       0.041367
     67 H353        41.8770    53.1640    32.3120 hc         1 ZIO       0.041367
     68 HA          44.6070    54.3780    27.7860 ho         1 ZIO       0.466000
     69 H361        43.7760    53.1350    33.6060 hc         1 ZIO       0.048367
     70 H362        44.1040    54.8390    33.2130 hc         1 ZIO       0.048367
     71 H363        45.4440    53.7330    33.5600 hc         1 ZIO       0.048367
     72 H301        47.2340    48.2380    31.6460 hc         1 ZIO       0.047367
     73 H302        46.9520    49.3260    33.0150 hc         1 ZIO       0.047367
     74 H303        48.1950    49.7120    31.8190 hc         1 ZIO       0.047367
     75 H321        45.7910    49.9420    25.0220 hc         1 ZIO       0.044367
     76 H322        44.5270    51.1520    24.8000 hc         1 ZIO       0.044367
     77 H323        44.1210    49.4210    24.7370 hc         1 ZIO       0.044367
     78 H22         45.7960    46.2990    27.2720 h2         1 ZIO       0.032700
     79 H23         43.5270    45.7520    25.2800 h1         1 ZIO       0.059700
     80 H24         45.7460    44.0110    26.4300 h1         1 ZIO       0.061700
     81 H251        45.3000    44.9510    23.5460 hc         1 ZIO       0.057200
     82 H252        46.6140    43.9110    24.1030 hc         1 ZIO       0.057200
     83 H26         47.4490    45.6970    25.6320 h1         1 ZIO       0.033700
     84 H271        46.8840    46.8690    22.8330 hc         1 ZIO       0.046700
     85 H272        48.2660    45.8420    23.2550 hc         1 ZIO       0.046700
     86 H273        48.1080    47.4500    23.9770 hc         1 ZIO       0.046700
     87 H8          43.2560    43.9620    26.9440 ho         1 ZIO       0.528000
     88 H281        44.4080    40.8860    25.1980 h1         1 ZIO       0.035700
     89 H282        45.7320    41.6720    26.0790 h1         1 ZIO       0.035700
     90 H283        45.6500    41.7900    24.3050 h1         1 ZIO       0.035700
     91 H14         48.5460    51.0380    30.1470 h2         1 ZIO       0.076700
     92 H151        50.0440    49.1720    29.4080 hc         1 ZIO       0.073700
     93 H152        50.6310    50.7730    28.9590 hc         1 ZIO       0.073700
     94 H16         49.1400    48.8150    27.1100 h1         1 ZIO       0.060700
     95 H17         50.2120    51.6260    26.5420 h1         1 ZIO       0.052700
     96 H18         47.3450    50.5440    26.6720 h1         1 ZIO       0.057700
     97 HC          50.3260    49.8980    24.8760 ho         1 ZIO       0.501000
     98 H201        50.8950    47.0870    27.3330 h1         1 ZIO       0.030700
     99 H202        51.8190    48.0230    28.5360 h1         1 ZIO       0.030700
    100 H203        52.5740    47.5640    26.9990 h1         1 ZIO       0.030700
    101 H291        42.6160    42.2170    24.2020 h1         1 ZIO       0.035700
    102 H292        43.7300    43.2440    23.2800 h1         1 ZIO       0.035700
    103 H293        42.5610    43.9730    24.4070 h1         1 ZIO       0.035700
    104 H211        46.6500    52.9510    26.4380 hc         1 ZIO       0.046033
    105 H212        47.4880    52.3870    24.9870 hc         1 ZIO       0.046033
    106 H213        48.3380    53.4160    26.1530 hc         1 ZIO       0.046033
    107 H311        45.3040    47.4290    30.7430 hc         1 ZIO       0.047033
    108 H312        46.4400    47.0630    29.4210 hc         1 ZIO       0.047033
    109 H313        44.7110    46.6720    29.2810 hc         1 ZIO       0.047033
@<TRIPOS>BOND
     1     1     2 1   
     2     1    13 1   
     3     1    19 1   
     4     1    49 1   
     5     2     3 1   
     6     2    22 1   
     7     2    50 1   
     8     3     4 1   
     9     3    21 1   
    10     3    51 1   
    11     4     5 1   
    12     4    23 1   
    13     4    52 1   
    14     5    15 1   
    15     6     7 1   
    16     6    15 1   
    17     6    24 1   
    18     6    53 1   
    19     7     8 1   
    20     7    17 1   
    21     7    54 1   
    22     8     9 1   
    23     8    48 1   
    24     8    55 1   
    25     9    10 1   
    26     9    18 1   
    27     9    56 1   
    28    10    11 1   
    29    10    25 1   
    30    10    57 1   
    31    11    12 1   
    32    11    58 1   
    33    11    59 1   
    34    12    13 1   
    35    12    20 1   
    36    12    44 1   
    37    13    14 2   
    38    15    16 2   
    39    17    36 1   
    40    18    26 1   
    41    19    60 1   
    42    19    61 1   
    43    19    62 1   
    44    20    44 1   
    45    20    63 1   
    46    20    64 1   
    47    21    65 1   
    48    21    66 1   
    49    21    67 1   
    50    22    68 1   
    51    23    69 1   
    52    23    70 1   
    53    23    71 1   
    54    24    72 1   
    55    24    73 1   
    56    24    74 1   
    57    25    75 1   
    58    25    76 1   
    59    25    77 1   
    60    26    27 1   
    61    26    31 1   
    62    26    78 1   
    63    27    28 1   
    64    27    34 1   
    65    27    79 1   
    66    28    29 1   
    67    28    32 1   
    68    28    80 1   
    69    29    30 1   
    70    29    81 1   
    71    29    82 1   
    72    30    31 1   
    73    30    33 1   
    74    30    83 1   
    75    32    35 1   
    76    32    46 1   
    77    33    84 1   
    78    33    85 1   
    79    33    86 1   
    80    34    87 1   
    81    35    88 1   
    82    35    89 1   
    83    35    90 1   
    84    36    37 1   
    85    36    41 1   
    86    36    91 1   
    87    37    38 1   
    88    37    92 1   
    89    37    93 1   
    90    38    39 1   
    91    38    42 1   
    92    38    94 1   
    93    39    40 1   
    94    39    43 1   
    95    39    95 1   
    96    40    41 1   
    97    40    47 1   
    98    40    96 1   
    99    42    45 1   
   100    43    97 1   
   101    45    98 1   
   102    45    99 1   
   103    45   100 1   
   104    46   101 1   
   105    46   102 1   
   106    46   103 1   
   107    47   104 1   
   108    47   105 1   
   109    47   106 1   
   110    48   107 1   
   111    48   108 1   
   112    48   109 1   
@<TRIPOS>SUBSTRUCTURE
     1 ZIO         1 TEMP              0 ****  ****    0 ROOT
