@<TRIPOS>MOLECULE
ZIP
   28    29     1     0     0
SMALL
bcc


@<TRIPOS>ATOM
      1 C14         -1.1290     0.2310     5.2390 c3         1 ZIP      -0.063400
      2 C13         -0.2110    -0.1170     4.1060 c2         1 ZIP      -0.082400
      3 C15          0.4920    -1.4360     4.2480 c3         1 ZIP      -0.063400
      4 C12         -0.0860     0.7010     3.0570 c2         1 ZIP      -0.213200
      5 C11          0.7820     0.4860     1.8570 c3         1 ZIP       0.268000
      6 N10         -0.0430     0.1860     0.6990 nu         1 ZIP      -0.852900
      7 C6           0.3880     0.2570    -0.5640 ca         1 ZIP       0.776200
      8 C5          -0.4210    -0.1220    -1.6540 ca         1 ZIP      -0.232200
      9 N9          -1.6970    -0.6150    -1.7380 nc         1 ZIP      -0.551100
     10 C4           0.1440     0.0100    -2.9140 ca         1 ZIP       0.451800
     11 N7          -0.8210    -0.4160    -3.7720 na         1 ZIP      -0.361000
     12 C8          -1.8940    -0.7760    -3.0160 cd         1 ZIP       0.394700
     13 N3           1.3700     0.4610    -3.1880 nb         1 ZIP      -0.749000
     14 C2           2.0270     0.7830    -2.0900 ca         1 ZIP       0.708900
     15 N1           1.6190     0.7050    -0.8240 nb         1 ZIP      -0.828000
     16 H141        -1.8820    -0.5490     5.3820 hc         1 ZIP       0.043867
     17 H142        -0.5750     0.3000     6.1780 hc         1 ZIP       0.043867
     18 H143        -1.6460     1.1760     5.0780 hc         1 ZIP       0.043867
     19 H151         1.4060    -1.5080     3.6620 hc         1 ZIP       0.043867
     20 H152         0.7470    -1.6280     5.2910 hc         1 ZIP       0.043867
     21 H153        -0.1660    -2.2500     3.9330 hc         1 ZIP       0.043867
     22 H12         -0.6730     1.6160     3.0460 ha         1 ZIP       0.128000
     23 H111         1.3520     1.3930     1.6470 h1         1 ZIP       0.059700
     24 H112         1.5120    -0.3100     2.0200 h1         1 ZIP       0.059700
     25 H10         -0.9340    -0.2550     0.8630 hn         1 ZIP       0.457800
     26 H7          -0.7600    -0.4620    -4.7780 hn         1 ZIP       0.318700
     27 H8          -2.7990    -1.1510    -3.4670 h5         1 ZIP       0.065800
     28 H2           3.0360     1.1590    -2.2300 h5         1 ZIP       0.045100
@<TRIPOS>BOND
     1     1     2 1   
     2     1    16 1   
     3     1    17 1   
     4     1    18 1   
     5     2     3 1   
     6     2     4 2   
     7     3    19 1   
     8     3    20 1   
     9     3    21 1   
    10     4     5 1   
    11     4    22 1   
    12     5     6 1   
    13     5    23 1   
    14     5    24 1   
    15     6     7 1   
    16     6    25 1   
    17     7     8 ar  
    18     7    15 ar  
    19     8     9 1   
    20     8    10 ar  
    21     9    12 2   
    22    10    11 1   
    23    10    13 ar  
    24    11    12 1   
    25    11    26 1   
    26    12    27 1   
    27    13    14 ar  
    28    14    15 ar  
    29    14    28 1   
@<TRIPOS>SUBSTRUCTURE
     1 ZIP         1 TEMP              0 ****  ****    0 ROOT
