@<TRIPOS>MOLECULE
ZIP
   28    29     1     0     0
SMALL
No Charge or Current Charge


@<TRIPOS>ATOM
      1 C14         -1.1910    -0.0090     5.1220 c3         1 ZIP      -0.063400
      2 C13         -0.3040    -0.1050     3.8950 c2         1 ZIP      -0.082400
      3 C15          0.0720    -1.5410     3.5610 c3         1 ZIP      -0.063400
      4 C12          0.0900     0.9790     3.1990 c2         1 ZIP      -0.263200
      5 C11          0.9700     1.0160     1.9740 c3         1 ZIP       0.268000
      6 N10          0.1510     0.6300     0.8280 nu         1 ZIP      -0.908100
      7 C6           0.5530     0.4870    -0.4930 ca         1 ZIP       0.447900
      8 C5          -0.2960    -0.1100    -1.4500 ca         1 ZIP      -0.101600
      9 N9          -1.5810    -0.6240    -1.2930 nc         1 ZIP      -0.551100
     10 C4           0.1600    -0.2270    -2.7370 ca         1 ZIP       0.123500
     11 N7          -0.8340    -0.8290    -3.4550 na         1 ZIP      -0.411300
     12 C8          -1.8690    -1.0500    -2.5360 cd         1 ZIP       0.394700
     13 N3           1.3790     0.2020    -3.1110 nb         1 ZIP      -0.223000
     14 C2           2.1320     0.7610    -2.1340 ca         1 ZIP       0.182900
     15 N1           1.7810     0.9260    -0.8370 nb         1 ZIP      -0.302000
     16 H141        -2.1270    -0.5610     4.9770 hc         1 ZIP       0.043867
     17 H142        -0.6900    -0.4240     6.0050 hc         1 ZIP       0.043867
     18 H143        -1.4550     1.0300     5.3530 hc         1 ZIP       0.043867
     19 H151         0.7060    -1.6170     2.6720 hc         1 ZIP       0.043867
     20 H152         0.6190    -2.0050     4.3910 hc         1 ZIP       0.043867
     21 H153        -0.8220    -2.1470     3.3730 hc         1 ZIP       0.043867
     22 H12         -0.2290     1.9730     3.5170 ha         1 ZIP       0.178000
     23 H111         1.3740     2.0290     1.8320 h1         1 ZIP       0.059700
     24 H112         1.8220     0.3310     2.0930 h1         1 ZIP       0.059700
     25 H10         -0.7660     0.2320     1.0260 hn         1 ZIP       0.513000
     26 H7          -0.8340    -1.0680    -4.4380 hn         1 ZIP       0.369000
     27 H8          -2.7960    -1.5230    -2.8420 h5         1 ZIP       0.065800
     28 H2           3.1210     1.1130    -2.4210 h5         1 ZIP       0.045100
@<TRIPOS>BOND
     1     1     2 1   
     2     1    16 1   
     3     1    17 1   
     4     1    18 1   
     5     2     3 1   
     6     2     4 2   
     7     3    19 1   
     8     3    20 1   
     9     3    21 1   
    10     4     5 1   
    11     4    22 1   
    12     5     6 1   
    13     5    23 1   
    14     5    24 1   
    15     6     7 1   
    16     6    25 1   
    17     7     8 ar  
    18     7    15 ar  
    19     8     9 1   
    20     8    10 ar  
    21     9    12 2   
    22    10    11 1   
    23    10    13 ar  
    24    11    12 1   
    25    11    26 1   
    26    12    27 1   
    27    13    14 ar  
    28    14    15 ar  
    29    14    28 1   
@<TRIPOS>SUBSTRUCTURE
     1 ZIP         1 TEMP              0 ****  ****    0 ROOT
