@<TRIPOS>MOLECULE
ZIQ
   29    30     1     0     0
SMALL
bcc


@<TRIPOS>ATOM
      1 N           -1.3920    -0.9210     1.2150 n8         1 ZIQ      -0.878800
      2 CA          -1.9420     0.1210     0.3580 c3         1 ZIQ       0.045200
      3 CB          -1.0210     0.4750    -0.8480 c3         1 ZIQ      -0.042200
      4 CG           0.3870     0.8110    -0.4850 cc         1 ZIQ      -0.094400
      5 CD2          1.4820    -0.1060    -0.3360 ca         1 ZIQ      -0.100800
      6 CE3          1.6110    -1.4930    -0.4850 ca         1 ZIQ      -0.062000
      7 CZ3          2.8430    -2.0800    -0.2770 ca         1 ZIQ      -0.180000
      8 CH2          3.9610    -1.3080     0.0840 ca         1 ZIQ      -0.119000
      9 CZ2          3.8670     0.0610     0.2390 ca         1 ZIQ      -0.163000
     10 CE2          2.6210     0.6500     0.0220 ca         1 ZIQ      -0.052200
     11 NE1          2.2340     1.9550     0.0890 na         1 ZIQ      -0.185400
     12 CD1          0.9040     2.0490    -0.2170 cd         1 ZIQ      -0.134100
     13 C           -2.1790     1.3590     1.2140 c3         1 ZIQ      -0.049100
     14 C1          -3.2650    -0.3880    -0.2740 c          1 ZIQ       0.937600
     15 O1          -4.0820     0.4780    -0.6470 o          1 ZIQ      -0.834300
     16 O2          -3.3850    -1.6220    -0.4130 o          1 ZIQ      -0.834300
     17 H1          -1.3510    -1.7880     0.6950 hn         1 ZIQ       0.326800
     18 H2          -0.4400    -0.6840     1.4690 hn         1 ZIQ       0.326800
     19 H4          -1.0160    -0.3790    -1.5340 hc         1 ZIQ       0.053200
     20 H5          -1.4710     1.3060    -1.3980 hc         1 ZIQ       0.053200
     21 H6           0.7540    -2.0980    -0.7570 ha         1 ZIQ       0.147000
     22 H7           2.9540    -3.1510    -0.3890 ha         1 ZIQ       0.119000
     23 H8           4.9130    -1.7960     0.2450 ha         1 ZIQ       0.112000
     24 H9           4.7300     0.6540     0.5160 ha         1 ZIQ       0.116000
     25 H10          2.8300     2.7340     0.3130 hn         1 ZIQ       0.284700
     26 H11          0.4140     3.0100    -0.2300 h4         1 ZIQ       0.159000
     27 H12         -2.8640     1.1360     2.0340 hc         1 ZIQ       0.017033
     28 H13         -1.2460     1.7190     1.6540 hc         1 ZIQ       0.017033
     29 H14         -2.6070     2.1720     0.6290 hc         1 ZIQ       0.017033
@<TRIPOS>BOND
     1     1     2 1   
     2     1    17 1   
     3     1    18 1   
     4     2     3 1   
     5     2    13 1   
     6     2    14 1   
     7     3     4 1   
     8     3    19 1   
     9     3    20 1   
    10     4     5 1   
    11     4    12 2   
    12     5     6 ar  
    13     5    10 ar  
    14     6     7 ar  
    15     6    21 1   
    16     7     8 ar  
    17     7    22 1   
    18     8     9 ar  
    19     8    23 1   
    20     9    10 ar  
    21     9    24 1   
    22    10    11 1   
    23    11    12 1   
    24    11    25 1   
    25    12    26 1   
    26    13    27 1   
    27    13    28 1   
    28    13    29 1   
    29    14    15 1   
    30    14    16 1   
@<TRIPOS>SUBSTRUCTURE
     1 ZIQ         1 TEMP              0 ****  ****    0 ROOT
