@<TRIPOS>MOLECULE
ZIQ
   29    30     1     0     0
SMALL
No Charge or Current Charge


@<TRIPOS>ATOM
      1 N           -1.3080    -0.9870     1.1600 n8         1 ZIQ      -0.878800
      2 CA          -1.9620     0.0890     0.3250 c3         1 ZIQ       0.045200
      3 CB          -1.0160     0.4220    -0.8710 c3         1 ZIQ      -0.042200
      4 CG           0.3990     0.8020    -0.5000 cc         1 ZIQ      -0.094400
      5 CD2          1.5180    -0.0820    -0.3120 ca         1 ZIQ      -0.100800
      6 CE3          1.6110    -1.4770    -0.4420 ca         1 ZIQ      -0.062000
      7 CZ3          2.8630    -2.0820    -0.1980 ca         1 ZIQ      -0.180000
      8 CH2          3.9810    -1.2930     0.1590 ca         1 ZIQ      -0.119000
      9 CZ2          3.8560     0.1080     0.2710 ca         1 ZIQ      -0.163000
     10 CE2          2.6010     0.6820     0.0250 ca         1 ZIQ      -0.052200
     11 NE1          2.2630     2.0210     0.0630 na         1 ZIQ      -0.185400
     12 CD1          0.8910     2.0850    -0.2750 cd         1 ZIQ      -0.134100
     13 C           -2.1090     1.3330     1.2510 c3         1 ZIQ      -0.049100
     14 C1          -3.3920    -0.3110    -0.2960 c          1 ZIQ       0.937600
     15 O1          -4.2960     0.5190    -0.3460 o          1 ZIQ      -0.834300
     16 O2          -3.5800    -1.4840    -0.6160 o          1 ZIQ      -0.834300
     17 H1          -1.5010    -1.8930     0.7220 hn         1 ZIQ       0.326800
     18 H2          -0.2920    -0.8710     1.0800 hn         1 ZIQ       0.326800
     19 H4          -0.9880    -0.4390    -1.5520 hc         1 ZIQ       0.053200
     20 H5          -1.4620     1.2370    -1.4550 hc         1 ZIQ       0.053200
     21 H6           0.7480    -2.0760    -0.7250 ha         1 ZIQ       0.147000
     22 H7           2.9670    -3.1610    -0.2880 ha         1 ZIQ       0.119000
     23 H8           4.9430    -1.7670     0.3440 ha         1 ZIQ       0.112000
     24 H9           4.7110     0.7250     0.5380 ha         1 ZIQ       0.116000
     25 H10          2.8750     2.7990     0.2830 hn         1 ZIQ       0.284700
     26 H11          0.3640     3.0320    -0.3220 h4         1 ZIQ       0.159000
     27 H12         -2.8450     1.1440     2.0430 hc         1 ZIQ       0.017033
     28 H13         -1.1580     1.5880     1.7350 hc         1 ZIQ       0.017033
     29 H14         -2.4390     2.2120     0.6840 hc         1 ZIQ       0.017033
@<TRIPOS>BOND
     1     1     2 1   
     2     1    17 1   
     3     1    18 1   
     4     2     3 1   
     5     2    13 1   
     6     2    14 1   
     7     3     4 1   
     8     3    19 1   
     9     3    20 1   
    10     4     5 1   
    11     4    12 2   
    12     5     6 ar  
    13     5    10 ar  
    14     6     7 ar  
    15     6    21 1   
    16     7     8 ar  
    17     7    22 1   
    18     8     9 ar  
    19     8    23 1   
    20     9    10 ar  
    21     9    24 1   
    22    10    11 1   
    23    11    12 1   
    24    11    25 1   
    25    12    26 1   
    26    13    27 1   
    27    13    28 1   
    28    13    29 1   
    29    14    15 1   
    30    14    16 1   
@<TRIPOS>SUBSTRUCTURE
     1 ZIQ         1 TEMP              0 ****  ****    0 ROOT
