@<TRIPOS>MOLECULE
ZIR
   45    47     1     0     0
SMALL
bcc


@<TRIPOS>ATOM
      1 N1           2.2360    -1.7620    -1.1600 nb         1 ZIR      -0.829000
      2 C2           1.1330    -2.4020    -1.5440 ca         1 ZIR       0.707900
      3 N3          -0.1230    -2.0060    -1.4430 nb         1 ZIR      -0.747000
      4 C4          -0.2120    -0.7980    -0.8870 ca         1 ZIR       0.449800
      5 C5           0.8380    -0.0110    -0.4450 ca         1 ZIR      -0.229200
      6 C6           2.1310    -0.5520    -0.6010 ca         1 ZIR       0.775200
      7 N7           0.3750     1.1710     0.0700 nc         1 ZIR      -0.557100
      8 C8          -0.9190     1.0950    -0.0570 cd         1 ZIR       0.408700
      9 N9          -1.3380    -0.0730    -0.6300 na         1 ZIR      -0.277000
     10 C1          -2.6970    -0.5260    -0.8990 c5         1 ZIR       0.264800
     11 N10          3.2300     0.1030    -0.2190 nu         1 ZIR      -0.852900
     12 C11          4.5710    -0.4470    -0.2940 c3         1 ZIR       0.267000
     13 C12          5.5790     0.6570    -0.2460 c2         1 ZIR      -0.210200
     14 C13          6.5070     0.8600     0.6920 c2         1 ZIR      -0.084400
     15 C14          7.4670     2.0080     0.5830 c3         1 ZIR      -0.063400
     16 C15          6.7070     0.0070     1.9090 c3         1 ZIR      -0.063400
     17 C7          -3.2150    -1.4440     0.2080 c5         1 ZIR       0.077100
     18 O2          -4.1510    -2.3170    -0.3600 oh         1 ZIR      -0.576800
     19 C3          -3.9000    -0.4310     1.1330 c5         1 ZIR       0.065100
     20 O3          -4.9130    -0.9810     1.9250 oh         1 ZIR      -0.583800
     21 C9          -4.4870     0.5540     0.1280 c5         1 ZIR       0.138100
     22 O4          -3.5480     0.5790    -0.9470 os         1 ZIR      -0.380600
     23 C10         -4.6910     1.9380     0.6930 c3         1 ZIR       0.141400
     24 O5          -5.2740     2.7540    -0.2910 oh         1 ZIR      -0.579800
     25 H2           1.2930    -3.3770    -1.9930 h5         1 ZIR       0.046100
     26 H8          -1.6090     1.8690     0.2370 h5         1 ZIR       0.069800
     27 H1          -2.6720    -1.0420    -1.8630 h2         1 ZIR       0.129700
     28 HN10         3.1040     0.9600     0.2970 hn         1 ZIR       0.456800
     29 H11          4.7310    -1.1810     0.4990 h1         1 ZIR       0.060700
     30 H11A         4.6630    -0.9870    -1.2380 h1         1 ZIR       0.060700
     31 H12          5.5320     1.3530    -1.0800 ha         1 ZIR       0.128000
     32 H14          7.3850     2.6640     1.4530 hc         1 ZIR       0.043533
     33 H14A         8.4980     1.6470     0.5640 hc         1 ZIR       0.043533
     34 H14B         7.3010     2.6060    -0.3120 hc         1 ZIR       0.043533
     35 H15          5.9740    -0.7890     2.0190 hc         1 ZIR       0.043533
     36 H15A         7.6980    -0.4520     1.8920 hc         1 ZIR       0.043533
     37 H15B         6.6690     0.6230     2.8110 hc         1 ZIR       0.043533
     38 H6          -2.4000    -1.9850     0.7050 h1         1 ZIR       0.076700
     39 HO2         -4.7970    -2.5390     0.3220 ho         1 ZIR       0.425000
     40 H3          -3.1390     0.0690     1.7480 h1         1 ZIR       0.053700
     41 HO3         -4.5170    -1.3680     2.7130 ho         1 ZIR       0.419000
     42 H4          -5.4490     0.1730    -0.2390 h1         1 ZIR       0.093700
     43 H5          -5.3330     1.8380     1.5770 h1         1 ZIR       0.025700
     44 H5'A        -3.7300     2.3400     1.0420 h1         1 ZIR       0.025700
     45 HO5         -5.4310     3.6220     0.0920 ho         1 ZIR       0.408000
@<TRIPOS>BOND
     1     1     2 ar  
     2     1     6 ar  
     3     2     3 ar  
     4     2    25 1   
     5     3     4 ar  
     6     4     5 ar  
     7     4     9 1   
     8     5     6 ar  
     9     5     7 1   
    10     6    11 1   
    11     7     8 2   
    12     8     9 1   
    13     8    26 1   
    14     9    10 1   
    15    10    17 1   
    16    10    22 1   
    17    10    27 1   
    18    11    12 1   
    19    11    28 1   
    20    12    13 1   
    21    12    29 1   
    22    12    30 1   
    23    13    14 2   
    24    13    31 1   
    25    14    15 1   
    26    14    16 1   
    27    15    32 1   
    28    15    33 1   
    29    15    34 1   
    30    16    35 1   
    31    16    36 1   
    32    16    37 1   
    33    17    18 1   
    34    17    19 1   
    35    17    38 1   
    36    18    39 1   
    37    19    20 1   
    38    19    21 1   
    39    19    40 1   
    40    20    41 1   
    41    21    22 1   
    42    21    23 1   
    43    21    42 1   
    44    23    24 1   
    45    23    43 1   
    46    23    44 1   
    47    24    45 1   
@<TRIPOS>SUBSTRUCTURE
     1 ZIR         1 TEMP              0 ****  ****    0 ROOT
