@<TRIPOS>MOLECULE
ZIR
   45    47     1     0     0
SMALL
No Charge or Current Charge


@<TRIPOS>ATOM
      1 N1           2.3950    -2.0930    -1.5510 nb         1 ZIR      -0.303000
      2 C2           1.2150    -2.7190    -1.7720 ca         1 ZIR       0.181900
      3 N3          -0.0220    -2.2060    -1.5730 nb         1 ZIR      -0.221000
      4 C4          -0.0680    -0.9420    -1.1080 ca         1 ZIR       0.121500
      5 C5           1.0690    -0.2190    -0.8510 ca         1 ZIR      -0.098600
      6 C6           2.3190    -0.8300    -1.0880 ca         1 ZIR       0.446900
      7 N7           0.7900     1.0570    -0.3740 nc         1 ZIR      -0.557100
      8 C8          -0.5560     1.0630    -0.3610 cd         1 ZIR       0.408700
      9 N9          -1.1370    -0.1430    -0.7990 na         1 ZIR      -0.306300
     10 C1          -2.5600    -0.4680    -0.8900 c5         1 ZIR       0.317300
     11 N10          3.5040    -0.1500    -0.8400 nu         1 ZIR      -0.908100
     12 C11          4.8570    -0.6960    -0.8120 c3         1 ZIR       0.267000
     13 C12          5.7970     0.4270    -0.4450 c2         1 ZIR      -0.260200
     14 C13          6.0180     0.9460     0.7780 c2         1 ZIR      -0.084400
     15 C14          6.9990     2.0780     1.0190 c3         1 ZIR      -0.063400
     16 C15          5.3370     0.4860     2.0580 c3         1 ZIR      -0.063400
     17 C7          -3.0830    -1.4430     0.2260 c5         1 ZIR       0.100300
     18 O2          -4.2060    -2.2440    -0.1830 oh         1 ZIR      -0.699000
     19 C3          -3.5330    -0.4120     1.2970 c5         1 ZIR       0.088300
     20 O3          -4.4140    -1.0110     2.2650 oh         1 ZIR      -0.706000
     21 C9          -4.2330     0.6300     0.3720 c5         1 ZIR       0.161300
     22 O4          -3.3280     0.7570    -0.7540 os         1 ZIR      -0.427000
     23 C10         -4.4900     2.0130     1.0320 c3         1 ZIR       0.164600
     24 O5          -5.2900     2.8620     0.1870 oh         1 ZIR      -0.702000
     25 H2           1.2660    -3.7390    -2.1470 h5         1 ZIR       0.046100
     26 H8          -1.1700     1.8970    -0.0440 h5         1 ZIR       0.069800
     27 H1          -2.7100    -0.9090    -1.8840 h2         1 ZIR       0.129700
     28 HN10         3.3690     0.7800    -0.4440 hn         1 ZIR       0.512000
     29 H11          4.9340    -1.5120    -0.0800 h1         1 ZIR       0.060700
     30 H11A         5.1260    -1.1030    -1.7970 h1         1 ZIR       0.060700
     31 H12          6.3360     0.8220    -1.3070 ha         1 ZIR       0.178000
     32 H14          6.4960     2.9530     1.4470 hc         1 ZIR       0.043533
     33 H14A         7.7910     1.7730     1.7130 hc         1 ZIR       0.043533
     34 H14B         7.4840     2.4010     0.0890 hc         1 ZIR       0.043533
     35 H15          4.6230    -0.3270     1.8900 hc         1 ZIR       0.043533
     36 H15A         6.0740     0.1250     2.7860 hc         1 ZIR       0.043533
     37 H15B         4.7850     1.3100     2.5260 hc         1 ZIR       0.043533
     38 H6          -2.2730    -2.0830     0.6020 h1         1 ZIR       0.076700
     39 HO2         -4.7930    -2.2520     0.6150 ho         1 ZIR       0.524000
     40 H3          -2.6620     0.0440     1.7920 h1         1 ZIR       0.053700
     41 HO3         -3.8820    -1.2080     3.0740 ho         1 ZIR       0.518000
     42 H4          -5.1930     0.2360     0.0090 h1         1 ZIR       0.093700
     43 H5          -5.0050     1.8510     1.9890 h1         1 ZIR       0.025700
     44 H5'A        -3.5240     2.4870     1.2520 h1         1 ZIR       0.025700
     45 HO5         -5.3760     3.7290     0.6480 ho         1 ZIR       0.507000
@<TRIPOS>BOND
     1     1     2 ar  
     2     1     6 ar  
     3     2     3 ar  
     4     2    25 1   
     5     3     4 ar  
     6     4     5 ar  
     7     4     9 1   
     8     5     6 ar  
     9     5     7 1   
    10     6    11 1   
    11     7     8 2   
    12     8     9 1   
    13     8    26 1   
    14     9    10 1   
    15    10    17 1   
    16    10    22 1   
    17    10    27 1   
    18    11    12 1   
    19    11    28 1   
    20    12    13 1   
    21    12    29 1   
    22    12    30 1   
    23    13    14 2   
    24    13    31 1   
    25    14    15 1   
    26    14    16 1   
    27    15    32 1   
    28    15    33 1   
    29    15    34 1   
    30    16    35 1   
    31    16    36 1   
    32    16    37 1   
    33    17    18 1   
    34    17    19 1   
    35    17    38 1   
    36    18    39 1   
    37    19    20 1   
    38    19    21 1   
    39    19    40 1   
    40    20    41 1   
    41    21    22 1   
    42    21    23 1   
    43    21    42 1   
    44    23    24 1   
    45    23    43 1   
    46    23    44 1   
    47    24    45 1   
@<TRIPOS>SUBSTRUCTURE
     1 ZIR         1 TEMP              0 ****  ****    0 ROOT
