@<TRIPOS>MOLECULE
ZIT
  124   126     1     0     0
SMALL
No Charge or Current Charge


@<TRIPOS>ATOM
      1 C1          69.2040   136.8590    93.1460 c          1 ZIT       0.595100
      2 C2          68.2450   136.0180    94.0020 c3         1 ZIT      -0.144700
      3 C3          68.2810   134.5060    93.5340 c3         1 ZIT       0.175300
      4 C4          66.8730   133.9130    93.2110 c3         1 ZIT      -0.061700
      5 C5          67.0320   132.5580    92.3890 c3         1 ZIT       0.175300
      6 C6          66.9540   132.6910    90.8170 c3         1 ZIT       0.192000
      7 C7          65.4920   133.0230    90.3050 c3         1 ZIT      -0.096400
      8 C8          65.2020   133.2530    88.7640 c3         1 ZIT      -0.065700
      9 C9          65.5100   134.6970    88.2800 c3         1 ZIT       0.162800
     10 N10         66.9330   135.1040    88.3740 n3         1 ZIT      -0.748600
     11 C11         67.1260   136.5930    88.5000 c3         1 ZIT       0.198500
     12 C12         68.1950   136.9610    89.5990 c3         1 ZIT       0.187300
     13 C13         68.3130   138.4770    90.0620 c3         1 ZIT       0.147000
     14 C14         69.2080   138.5320    91.3650 c3         1 ZIT       0.143300
     15 C15         69.4920   139.9490    91.9480 c3         1 ZIT      -0.077400
     16 C16         70.4940   139.9680    93.1220 c3         1 ZIT      -0.089100
     17 C17         68.3940   136.3590    95.5300 c3         1 ZIT      -0.080100
     18 C18         65.9260   133.8920    94.4740 c3         1 ZIT      -0.080100
     19 C19         67.4730   131.3820    90.1690 c3         1 ZIT      -0.096100
     20 C20         63.7280   132.9120    88.4380 c3         1 ZIT      -0.089100
     21 C21         67.8040   134.4270    87.3650 c3         1 ZIT       0.150100
     22 C22         67.2910   137.3090    87.1350 c3         1 ZIT      -0.102100
     23 C23         66.9100   139.1030    90.3200 c3         1 ZIT      -0.122100
     24 O1          70.4150   136.6970    93.1180 o          1 ZIT      -0.499000
     25 O6          67.8400   133.7300    90.4030 oh         1 ZIT      -0.777000
     26 O12         69.4880   136.4040    89.2750 oh         1 ZIT      -0.656000
     27 O13         68.9350   139.2690    89.0290 oh         1 ZIT      -0.641000
     28 O14         68.5160   137.7640    92.3790 os         1 ZIT      -0.459100
     29 C1A         66.4890   130.6480    93.8280 c6         1 ZIT       0.393300
     30 C2A         65.2810   129.9250    94.5150 c6         1 ZIT       0.147300
     31 C3A         65.8380   128.8960    95.5340 c6         1 ZIT       0.138500
     32 C4A         66.7760   127.8980    94.8060 c6         1 ZIT      -0.126400
     33 C5A         67.8890   128.6800    94.0580 c6         1 ZIT       0.175300
     34 C6A         68.7730   127.7490    93.1950 c3         1 ZIT      -0.084100
     35 O1A         66.0470   131.5970    92.8360 os         1 ZIT      -0.445000
     36 O2A         64.3640   130.7820    95.2230 oh         1 ZIT      -0.718000
     37 N3A         64.7370   128.2690    96.3410 n3         1 ZIT      -0.747600
     38 O5A         67.3070   129.6540    93.1670 os         1 ZIT      -0.507000
     39 C1B         70.2940   133.7310    94.7410 c6         1 ZIT       0.388300
     40 C2B         70.7240   133.2000    96.1280 c6         1 ZIT      -0.125400
     41 C3B         70.5600   131.6550    96.2820 c6         1 ZIT       0.194000
     42 C4B         71.2960   130.9620    95.0740 c6         1 ZIT       0.152300
     43 C5B         70.7360   131.5490    93.7380 c6         1 ZIT       0.144300
     44 C6B         71.4300   130.9850    92.4710 c3         1 ZIT      -0.092100
     45 C7B         71.1920   131.1880    97.6310 c3         1 ZIT      -0.111100
     46 O1B         68.8650   133.6860    94.5710 os         1 ZIT      -0.473000
     47 O3B         69.1570   131.2460    96.3040 os         1 ZIT      -0.453000
     48 O4B         71.1740   129.5200    95.1110 oh         1 ZIT      -0.711000
     49 O5B         70.9420   132.9810    93.6930 os         1 ZIT      -0.478000
     50 H2          67.2440   136.3790    93.7420 hc         1 ZIT       0.080700
     51 H3          68.8850   134.4390    92.6170 h1         1 ZIT       0.093700
     52 H4          66.4050   134.6180    92.5170 hc         1 ZIT       0.052700
     53 H5          68.0330   132.1660    92.6050 h1         1 ZIT       0.066700
     54 H71         64.8570   132.1900    90.6310 hc         1 ZIT       0.054200
     55 H72         65.1050   133.8920    90.8480 hc         1 ZIT       0.054200
     56 H8          65.8090   132.5510    88.1830 hc         1 ZIT       0.056700
     57 H91         65.1700   134.8100    87.2420 h1         1 ZIT       0.031700
     58 H92         64.8860   135.3680    88.8860 h1         1 ZIT       0.031700
     59 H11         66.1880   136.9910    88.9050 h1         1 ZIT       0.041700
     60 H12         67.8250   136.4250    90.4820 h1         1 ZIT       0.042700
     61 H14         70.1730   138.0760    91.1070 h1         1 ZIT       0.085700
     62 H151        69.8910   140.5930    91.1560 hc         1 ZIT       0.051200
     63 H152        68.5580   140.4080    92.2900 hc         1 ZIT       0.051200
     64 H161        70.7070   141.0010    93.4240 hc         1 ZIT       0.038033
     65 H162        70.0900   139.4400    93.9940 hc         1 ZIT       0.038033
     66 H163        71.4410   139.4950    92.8340 hc         1 ZIT       0.038033
     67 H171        67.7130   135.7500    96.1370 hc         1 ZIT       0.045033
     68 H172        69.4160   136.1860    95.8840 hc         1 ZIT       0.045033
     69 H173        68.1550   137.4140    95.7080 hc         1 ZIT       0.045033
     70 H181        64.9280   133.5300    94.2010 hc         1 ZIT       0.040700
     71 H182        66.3240   133.2410    95.2610 hc         1 ZIT       0.040700
     72 H183        65.7990   134.8950    94.8950 hc         1 ZIT       0.040700
     73 H191        67.5810   131.4810    89.0840 hc         1 ZIT       0.041700
     74 H192        68.4560   131.1110    90.5720 hc         1 ZIT       0.041700
     75 H193        66.7880   130.5500    90.3680 hc         1 ZIT       0.041700
     76 H201        63.5260   133.0420    87.3680 hc         1 ZIT       0.034367
     77 H202        63.5030   131.8700    88.6950 hc         1 ZIT       0.034367
     78 H203        63.0440   133.5600    88.9990 hc         1 ZIT       0.034367
     79 H211        68.8500   134.7440    87.4490 h1         1 ZIT       0.042367
     80 H212        67.7840   133.3370    87.4910 h1         1 ZIT       0.042367
     81 H213        67.4660   134.6500    86.3440 h1         1 ZIT       0.042367
     82 H221        67.1630   138.3910    87.2420 hc         1 ZIT       0.044033
     83 H222        68.2830   137.1240    86.7080 hc         1 ZIT       0.044033
     84 H223        66.5340   136.9600    86.4240 hc         1 ZIT       0.044033
     85 H231        66.9850   140.1290    90.6970 hc         1 ZIT       0.048367
     86 H232        66.3170   139.1530    89.4000 hc         1 ZIT       0.048367
     87 H233        66.3450   138.5140    91.0530 hc         1 ZIT       0.048367
     88 HO6         67.3900   134.1910    89.6280 ho         1 ZIT       0.552000
     89 HO12        69.3460   135.4350    89.2300 ho         1 ZIT       0.468000
     90 HO13        68.7940   140.2120    89.2570 ho         1 ZIT       0.436000
     91 H1A1        67.0820   131.1690    94.5950 h2         1 ZIT       0.059700
     92 H2A1        64.7390   129.3810    93.7280 h1         1 ZIT       0.054700
     93 H3A1        66.4760   129.4660    96.2270 h1         1 ZIT       0.068700
     94 H4A1        67.2350   127.2070    95.5250 hc         1 ZIT       0.053200
     95 H4A2        66.2090   127.2880    94.0910 hc         1 ZIT       0.053200
     96 H5A1        68.5290   129.1990    94.7860 h1         1 ZIT       0.063700
     97 H6A1        69.5300   128.3210    92.6480 hc         1 ZIT       0.042033
     98 H6A2        69.2970   127.0160    93.8200 hc         1 ZIT       0.042033
     99 H6A3        68.1730   127.1980    92.4610 hc         1 ZIT       0.042033
    100 H7A1        62.9540   127.1020    96.2130 h1         1 ZIT       0.033867
    101 H7A2        63.3390   127.9930    94.7330 h1         1 ZIT       0.033867
    102 H7A3        64.2710   126.5390    95.1650 h1         1 ZIT       0.033867
    103 H8A1        64.3860   127.2640    98.1890 h1         1 ZIT       0.033867
    104 H8A2        65.7950   126.6660    97.2860 h1         1 ZIT       0.033867
    105 H8A3        65.8790   128.2230    98.1450 h1         1 ZIT       0.033867
    106 HO2A        64.0490   130.1790    95.9440 ho         1 ZIT       0.524000
    107 H1B1        70.6280   134.7760    94.6750 h2         1 ZIT       0.071700
    108 H2B1        71.7810   133.4610    96.2710 hc         1 ZIT       0.061700
    109 H2B2        70.1890   133.7430    96.9160 hc         1 ZIT       0.061700
    110 H4B1        72.3610   131.2330    95.1340 h1         1 ZIT       0.038700
    111 H5B1        69.6610   131.3330    93.6730 h1         1 ZIT       0.075700
    112 H6B1        71.0240   131.4510    91.5660 hc         1 ZIT       0.045700
    113 H6B2        72.5100   131.1740    92.4920 hc         1 ZIT       0.045700
    114 H6B3        71.2800   129.9050    92.3760 hc         1 ZIT       0.045700
    115 H7B1        70.9560   130.1390    97.8430 hc         1 ZIT       0.045367
    116 H7B2        72.2840   131.2800    97.6070 hc         1 ZIT       0.045367
    117 H7B3        70.8420   131.7890    98.4780 hc         1 ZIT       0.045367
    118 H8B1        67.2540   131.3790    97.1600 h1         1 ZIT       0.031367
    119 H8B2        68.5860   131.5730    98.3090 h1         1 ZIT       0.031367
    120 H8B3        68.1680   132.8900    97.1810 h1         1 ZIT       0.031367
    121 HO4B        71.9460   129.1540    94.6240 ho         1 ZIT       0.500000
    122 C7A         63.7790   127.4340    95.5680 c3         1 ZIT       0.155100
    123 C8A         65.2270   127.5680    97.5520 c3         1 ZIT       0.155100
    124 C8B         68.2580   131.8020    97.2880 c3         1 ZIT       0.147900
@<TRIPOS>BOND
     1     1     2 1   
     2     1    24 2   
     3     1    28 1   
     4     2     3 1   
     5     2    17 1   
     6     2    50 1   
     7     3     4 1   
     8     3    46 1   
     9     3    51 1   
    10     4     5 1   
    11     4    18 1   
    12     4    52 1   
    13     5     6 1   
    14     5    35 1   
    15     5    53 1   
    16     6     7 1   
    17     6    19 1   
    18     6    25 1   
    19     7     8 1   
    20     7    54 1   
    21     7    55 1   
    22     8     9 1   
    23     8    20 1   
    24     8    56 1   
    25     9    10 1   
    26     9    57 1   
    27     9    58 1   
    28    10    11 1   
    29    10    21 1   
    30    11    12 1   
    31    11    22 1   
    32    11    59 1   
    33    12    13 1   
    34    12    26 1   
    35    12    60 1   
    36    13    14 1   
    37    13    23 1   
    38    13    27 1   
    39    14    15 1   
    40    14    28 1   
    41    14    61 1   
    42    15    16 1   
    43    15    62 1   
    44    15    63 1   
    45    16    64 1   
    46    16    65 1   
    47    16    66 1   
    48    17    67 1   
    49    17    68 1   
    50    17    69 1   
    51    18    70 1   
    52    18    71 1   
    53    18    72 1   
    54    19    73 1   
    55    19    74 1   
    56    19    75 1   
    57    20    76 1   
    58    20    77 1   
    59    20    78 1   
    60    21    79 1   
    61    21    80 1   
    62    21    81 1   
    63    22    82 1   
    64    22    83 1   
    65    22    84 1   
    66    23    85 1   
    67    23    86 1   
    68    23    87 1   
    69    25    88 1   
    70    26    89 1   
    71    27    90 1   
    72    29    30 1   
    73    29    35 1   
    74    29    38 1   
    75    29    91 1   
    76    30    31 1   
    77    30    36 1   
    78    30    92 1   
    79    31    32 1   
    80    31    37 1   
    81    31    93 1   
    82    32    33 1   
    83    32    94 1   
    84    32    95 1   
    85    33    34 1   
    86    33    38 1   
    87    33    96 1   
    88    34    97 1   
    89    34    98 1   
    90    34    99 1   
    91    36   106 1   
    92    37   122 1   
    93    37   123 1   
    94    39    40 1   
    95    39    46 1   
    96    39    49 1   
    97    39   107 1   
    98    40    41 1   
    99    40   108 1   
   100    40   109 1   
   101    41    42 1   
   102    41    45 1   
   103    41    47 1   
   104    42    43 1   
   105    42    48 1   
   106    42   110 1   
   107    43    44 1   
   108    43    49 1   
   109    43   111 1   
   110    44   112 1   
   111    44   113 1   
   112    44   114 1   
   113    45   115 1   
   114    45   116 1   
   115    45   117 1   
   116    47   124 1   
   117    48   121 1   
   118   100   122 1   
   119   101   122 1   
   120   102   122 1   
   121   103   123 1   
   122   104   123 1   
   123   105   123 1   
   124   118   124 1   
   125   119   124 1   
   126   120   124 1   
@<TRIPOS>SUBSTRUCTURE
     1 ZIT         1 TEMP              0 ****  ****    0 ROOT
