@<TRIPOS>MOLECULE
ZIT
  124   126     1     0     0
SMALL
abcg2


@<TRIPOS>ATOM
      1 C1          69.1490   136.7530    92.6630 c          1 ZIT       0.595100
      2 C2          68.6450   135.9590    93.8470 c3         1 ZIT      -0.144700
      3 C3          68.6460   134.4360    93.5100 c3         1 ZIT       0.175300
      4 C4          67.2390   133.9610    93.1090 c3         1 ZIT      -0.061700
      5 C5          67.3230   132.5710    92.4180 c3         1 ZIT       0.175300
      6 C6          67.2550   132.6510    90.8670 c3         1 ZIT       0.192000
      7 C7          65.8350   133.0290    90.4090 c3         1 ZIT      -0.096400
      8 C8          65.5770   133.1280    88.8880 c3         1 ZIT      -0.065700
      9 C9          65.6920   134.5610    88.3570 c3         1 ZIT       0.162800
     10 N10         67.0230   135.1620    88.5130 n3         1 ZIT      -0.748600
     11 C11         66.9690   136.6450    88.6320 c3         1 ZIT       0.198500
     12 C12         67.9730   137.1060    89.7000 c3         1 ZIT       0.187300
     13 C13         67.8000   138.5620    90.2140 c3         1 ZIT       0.147000
     14 C14         68.7740   138.7820    91.4060 c3         1 ZIT       0.143300
     15 C15         68.7710   140.1730    92.0190 c3         1 ZIT      -0.077400
     16 C16         69.9020   140.3610    93.0280 c3         1 ZIT      -0.089100
     17 C17         69.4540   136.3750    95.0880 c3         1 ZIT      -0.080100
     18 C18         66.2660   133.9950    94.2870 c3         1 ZIT      -0.080100
     19 C19         67.6850   131.3060    90.2780 c3         1 ZIT      -0.096100
     20 C20         64.1780   132.5970    88.5570 c3         1 ZIT      -0.089100
     21 C21         67.9450   134.6650    87.4840 c3         1 ZIT       0.150100
     22 C22         67.0470   137.3830    87.2960 c3         1 ZIT      -0.102100
     23 C23         66.3550   138.8440    90.6120 c3         1 ZIT      -0.122100
     24 O1          70.1080   136.4450    91.9800 o          1 ZIT      -0.499000
     25 O6          68.2170   133.6390    90.4840 oh         1 ZIT      -0.777000
     26 O12         69.3080   136.8760    89.2530 oh         1 ZIT      -0.656000
     27 O13         68.2280   139.4600    89.1810 oh         1 ZIT      -0.641000
     28 O14         68.4220   137.8560    92.4720 os         1 ZIT      -0.459100
     29 C1A         66.6490   130.7020    93.7860 c6         1 ZIT       0.393300
     30 C2A         65.3920   130.1650    94.4570 c6         1 ZIT       0.147300
     31 C3A         65.7570   129.0030    95.3850 c6         1 ZIT       0.138500
     32 C4A         66.5170   127.9260    94.6170 c6         1 ZIT      -0.126400
     33 C5A         67.7180   128.5490    93.9110 c6         1 ZIT       0.175300
     34 C6A         68.4420   127.5640    93.0170 c3         1 ZIT      -0.084100
     35 O1A         66.2880   131.6750    92.8620 os         1 ZIT      -0.445000
     36 O2A         64.7440   131.1780    95.2180 oh         1 ZIT      -0.718000
     37 N3A         64.5460   128.5900    96.1130 n3         1 ZIT      -0.747600
     38 O5A         67.2860   129.6400    93.0780 os         1 ZIT      -0.507000
     39 C1B         70.4900   133.4000    94.6370 c6         1 ZIT       0.388300
     40 C2B         70.8860   132.9700    96.0400 c6         1 ZIT      -0.125400
     41 C3B         70.5860   131.5000    96.3670 c6         1 ZIT       0.194000
     42 C4B         71.1950   130.6600    95.2370 c6         1 ZIT       0.152300
     43 C5B         70.6360   131.0900    93.8770 c6         1 ZIT       0.144300
     44 C6B         71.2640   130.3450    92.7170 c3         1 ZIT      -0.092100
     45 C7B         71.1970   131.1320    97.7190 c3         1 ZIT      -0.111100
     46 O1B         69.0970   133.6260    94.5970 os         1 ZIT      -0.473000
     47 O3B         69.1800   131.2130    96.3340 os         1 ZIT      -0.453000
     48 O4B         70.9440   129.2770    95.4830 oh         1 ZIT      -0.711000
     49 O5B         70.9190   132.4810    93.6490 os         1 ZIT      -0.478000
     50 H2          67.6230   136.2870    94.0220 hc         1 ZIT       0.080700
     51 H3          69.3090   134.2750    92.6640 h1         1 ZIT       0.093700
     52 H4          66.8940   134.6880    92.3710 hc         1 ZIT       0.052700
     53 H5          68.2870   132.1270    92.6660 h1         1 ZIT       0.066700
     54 H71         65.1710   132.2690    90.8200 hc         1 ZIT       0.054200
     55 H72         65.5480   133.9740    90.8780 hc         1 ZIT       0.054200
     56 H8          66.2930   132.5020    88.3540 hc         1 ZIT       0.056700
     57 H91         65.3830   134.5760    87.3010 h1         1 ZIT       0.031700
     58 H92         64.9770   135.1760    88.9070 h1         1 ZIT       0.031700
     59 H11         65.9920   136.8480    89.0640 h1         1 ZIT       0.041700
     60 H12         67.7680   136.4600    90.5550 h1         1 ZIT       0.042700
     61 H14         69.7770   138.5440    91.0620 h1         1 ZIT       0.085700
     62 H151        68.8730   140.8980    91.2130 hc         1 ZIT       0.051200
     63 H152        67.8090   140.3570    92.5010 hc         1 ZIT       0.051200
     64 H161        69.8590   141.3560    93.4740 hc         1 ZIT       0.038033
     65 H162        69.8340   139.6300    93.8350 hc         1 ZIT       0.038033
     66 H163        70.8770   140.2470    92.5490 hc         1 ZIT       0.038033
     67 H171        69.1410   135.7790    95.9430 hc         1 ZIT       0.045033
     68 H172        70.5260   136.2430    94.9480 hc         1 ZIT       0.045033
     69 H173        69.2690   137.4270    95.3090 hc         1 ZIT       0.045033
     70 H181        65.2630   133.7240    93.9630 hc         1 ZIT       0.040700
     71 H182        66.5540   133.2980    95.0730 hc         1 ZIT       0.040700
     72 H183        66.2210   134.9950    94.7210 hc         1 ZIT       0.040700
     73 H191        67.7260   131.3630    89.1910 hc         1 ZIT       0.041700
     74 H192        68.6800   131.0490    90.6420 hc         1 ZIT       0.041700
     75 H193        66.9980   130.5120    90.5660 hc         1 ZIT       0.041700
     76 H201        63.9640   132.6740    87.4890 hc         1 ZIT       0.034367
     77 H202        64.0870   131.5490    88.8480 hc         1 ZIT       0.034367
     78 H203        63.4120   133.1620    89.0960 hc         1 ZIT       0.034367
     79 H211        68.9280   135.0970    87.6380 h1         1 ZIT       0.042367
     80 H212        68.0260   133.5820    87.5730 h1         1 ZIT       0.042367
     81 H213        67.6020   134.8970    86.4690 h1         1 ZIT       0.042367
     82 H221        66.7600   138.4250    87.4250 hc         1 ZIT       0.044033
     83 H222        68.0540   137.3660    86.8810 hc         1 ZIT       0.044033
     84 H223        66.3680   136.9260    86.5740 hc         1 ZIT       0.044033
     85 H231        66.2700   139.8280    91.0740 hc         1 ZIT       0.048367
     86 H232        65.7070   138.8290    89.7370 hc         1 ZIT       0.048367
     87 H233        65.9950   138.1020    91.3250 hc         1 ZIT       0.048367
     88 HO6         67.7900   134.2710    89.8500 ho         1 ZIT       0.552000
     89 HO12        69.8410   136.6750    90.0360 ho         1 ZIT       0.468000
     90 HO13        67.7580   140.2950    89.2880 ho         1 ZIT       0.436000
     91 H1A1        67.3420   131.1000    94.5390 h2         1 ZIT       0.059700
     92 H2A1        64.7270   129.8150    93.6560 h1         1 ZIT       0.054700
     93 H3A1        66.4230   129.4140    96.1480 h1         1 ZIT       0.068700
     94 H4A1        66.8620   127.1410    95.2930 hc         1 ZIT       0.053200
     95 H4A2        65.8740   127.4610    93.8660 hc         1 ZIT       0.053200
     96 H5A1        68.4130   128.9450    94.6590 h1         1 ZIT       0.063700
     97 H6A1        69.2530   128.0510    92.4770 hc         1 ZIT       0.042033
     98 H6A2        68.8630   126.7570    93.6190 hc         1 ZIT       0.042033
     99 H6A3        67.7510   127.1300    92.2910 hc         1 ZIT       0.042033
    100 H7A1        62.6460   127.7640    95.8510 h1         1 ZIT       0.033867
    101 H7A2        63.4630   128.1960    94.3480 h1         1 ZIT       0.033867
    102 H7A3        63.9510   126.7350    95.2320 h1         1 ZIT       0.033867
    103 H8A1        63.9080   127.8370    97.9550 h1         1 ZIT       0.033867
    104 H8A2        65.3350   127.0030    97.3180 h1         1 ZIT       0.033867
    105 H8A3        65.4800   128.6460    97.9860 h1         1 ZIT       0.033867
    106 HO2A        64.2400   130.6590    95.8740 ho         1 ZIT       0.524000
    107 H1B1        71.0170   134.3150    94.3650 h2         1 ZIT       0.071700
    108 H2B1        71.9630   133.1160    96.1370 hc         1 ZIT       0.061700
    109 H2B2        70.4110   133.6310    96.7640 hc         1 ZIT       0.061700
    110 H4B1        72.2740   130.8480    95.2390 h1         1 ZIT       0.038700
    111 H5B1        69.5570   130.9340    93.8860 h1         1 ZIT       0.075700
    112 H6B1        70.8370   130.6940    91.7770 hc         1 ZIT       0.045700
    113 H6B2        72.3420   130.5180    92.6970 hc         1 ZIT       0.045700
    114 H6B3        71.0830   129.2740    92.7940 hc         1 ZIT       0.045700
    115 H7B1        70.9080   130.1220    98.0070 hc         1 ZIT       0.045367
    116 H7B2        72.2850   131.1790    97.6590 hc         1 ZIT       0.045367
    117 H7B3        70.8730   131.8260    98.4950 hc         1 ZIT       0.045367
    118 H8B1        67.3370   131.5710    97.0520 h1         1 ZIT       0.031367
    119 H8B2        68.5850   131.5240    98.3120 h1         1 ZIT       0.031367
    120 H8B3        68.4380   132.9420    97.2420 h1         1 ZIT       0.031367
    121 HO4B        71.5980   128.7580    95.0010 ho         1 ZIT       0.500000
    122 C7A         63.6130   127.7750    95.3430 c3         1 ZIT       0.155100
    123 C8A         64.8380   127.9820    97.4040 c3         1 ZIT       0.155100
    124 C8B         68.3600   131.8530    97.2930 c3         1 ZIT       0.147900
@<TRIPOS>BOND
     1     1     2 1   
     2     1    24 2   
     3     1    28 1   
     4     2     3 1   
     5     2    17 1   
     6     2    50 1   
     7     3     4 1   
     8     3    46 1   
     9     3    51 1   
    10     4     5 1   
    11     4    18 1   
    12     4    52 1   
    13     5     6 1   
    14     5    35 1   
    15     5    53 1   
    16     6     7 1   
    17     6    19 1   
    18     6    25 1   
    19     7     8 1   
    20     7    54 1   
    21     7    55 1   
    22     8     9 1   
    23     8    20 1   
    24     8    56 1   
    25     9    10 1   
    26     9    57 1   
    27     9    58 1   
    28    10    11 1   
    29    10    21 1   
    30    11    12 1   
    31    11    22 1   
    32    11    59 1   
    33    12    13 1   
    34    12    26 1   
    35    12    60 1   
    36    13    14 1   
    37    13    23 1   
    38    13    27 1   
    39    14    15 1   
    40    14    28 1   
    41    14    61 1   
    42    15    16 1   
    43    15    62 1   
    44    15    63 1   
    45    16    64 1   
    46    16    65 1   
    47    16    66 1   
    48    17    67 1   
    49    17    68 1   
    50    17    69 1   
    51    18    70 1   
    52    18    71 1   
    53    18    72 1   
    54    19    73 1   
    55    19    74 1   
    56    19    75 1   
    57    20    76 1   
    58    20    77 1   
    59    20    78 1   
    60    21    79 1   
    61    21    80 1   
    62    21    81 1   
    63    22    82 1   
    64    22    83 1   
    65    22    84 1   
    66    23    85 1   
    67    23    86 1   
    68    23    87 1   
    69    25    88 1   
    70    26    89 1   
    71    27    90 1   
    72    29    30 1   
    73    29    35 1   
    74    29    38 1   
    75    29    91 1   
    76    30    31 1   
    77    30    36 1   
    78    30    92 1   
    79    31    32 1   
    80    31    37 1   
    81    31    93 1   
    82    32    33 1   
    83    32    94 1   
    84    32    95 1   
    85    33    34 1   
    86    33    38 1   
    87    33    96 1   
    88    34    97 1   
    89    34    98 1   
    90    34    99 1   
    91    36   106 1   
    92    37   122 1   
    93    37   123 1   
    94    39    40 1   
    95    39    46 1   
    96    39    49 1   
    97    39   107 1   
    98    40    41 1   
    99    40   108 1   
   100    40   109 1   
   101    41    42 1   
   102    41    45 1   
   103    41    47 1   
   104    42    43 1   
   105    42    48 1   
   106    42   110 1   
   107    43    44 1   
   108    43    49 1   
   109    43   111 1   
   110    44   112 1   
   111    44   113 1   
   112    44   114 1   
   113    45   115 1   
   114    45   116 1   
   115    45   117 1   
   116    47   124 1   
   117    48   121 1   
   118   100   122 1   
   119   101   122 1   
   120   102   122 1   
   121   103   123 1   
   122   104   123 1   
   123   105   123 1   
   124   118   124 1   
   125   119   124 1   
   126   120   124 1   
@<TRIPOS>SUBSTRUCTURE
     1 ZIT         1 TEMP              0 ****  ****    0 ROOT
