@<TRIPOS>MOLECULE
ZIY
  166   169     1     0     0
SMALL
No Charge or Current Charge


@<TRIPOS>ATOM
      1 C10        340.3720   214.9740   235.0700 ca         1 ZIY      -0.073000
      2 C13        340.6010   215.8390   236.1530 ca         1 ZIY      -0.171500
      3 C22        338.7640   217.2530   235.4200 ca         1 ZIY      -0.171500
      4 C24        338.5340   216.3870   234.3360 ca         1 ZIY      -0.073000
      5 C28        339.5460   216.2750   230.1830 c          1 ZIY       0.600100
      6 C01        340.1750   214.4340   231.8360 c3         1 ZIY       0.065700
      7 N02        340.3000   215.8440   231.3160 n          1 ZIY      -0.392800
      8 N05        339.4730   217.9740   228.2830 n          1 ZIY      -0.399800
      9 C07        339.3400   215.2470   234.1530 ca         1 ZIY      -0.122300
     10 N08        340.1870   216.9290   224.6990 ns         1 ZIY      -0.495900
     11 N11        343.1160   214.7030   227.8710 ns         1 ZIY      -0.488900
     12 C14        339.8030   216.9790   236.3350 ca         1 ZIY       0.142100
     13 N15        340.8610   212.4250   226.1080 ns         1 ZIY      -0.474900
     14 N17        340.7350   212.2060   222.4090 n          1 ZIY      -0.382800
     15 O18        343.7570   216.6210   223.0550 os         1 ZIY      -0.432100
     16 N20        343.6140   211.0580   220.1530 n          1 ZIY      -0.379800
     17 O23        345.8350   216.8700   226.4850 oh         1 ZIY      -0.670000
     18 C30        339.8770   217.7320   229.6950 c5         1 ZIY       0.035700
     19 O31        345.0040   212.5720   221.1740 o          1 ZIY      -0.588100
     20 C32        338.9580   218.7360   230.4620 c5         1 ZIY      -0.087400
     21 O33        346.3800   210.2980   218.9600 o          1 ZIY      -0.512100
     22 C34        338.8140   219.8930   229.4450 c5         1 ZIY      -0.095400
     23 O35        340.8380   213.4450   229.6940 os         1 ZIY      -0.437100
     24 C36        338.5700   219.1310   228.1190 c5         1 ZIY       0.108000
     25 C38        340.0710   217.2840   227.2080 c          1 ZIY       0.612100
     26 C39        339.3010   217.2300   225.8520 c3         1 ZIY       0.048700
     27 C40        338.1390   216.2020   225.9500 c3         1 ZIY      -0.088400
     28 C41        337.3090   215.9710   224.6570 c3         1 ZIY      -0.058700
     29 C42        336.6150   217.2580   224.1530 c3         1 ZIY      -0.092100
     30 C43        336.2730   214.8430   224.8650 c3         1 ZIY      -0.092100
     31 C44        340.3370   217.7720   223.6170 c          1 ZIY       0.611100
     32 C45        340.9330   217.1520   222.3570 c3         1 ZIY      -0.249700
     33 C46        339.8170   216.9600   221.2910 c3         1 ZIY      -0.078100
     34 C47        342.0790   218.0470   221.8400 c          1 ZIY       0.578100
     35 C48        343.5520   217.5480   221.9610 c3         1 ZIY       0.074300
     36 C49        344.0820   216.8670   220.6630 c3         1 ZIY      -0.048700
     37 C50        343.3630   215.5430   220.3140 c3         1 ZIY      -0.090600
     38 C51        345.6150   216.6620   220.7180 c3         1 ZIY      -0.090600
     39 C52        343.7140   217.0940   224.3360 c          1 ZIY       0.597100
     40 C53        343.9130   215.9710   225.3370 c3         1 ZIY      -0.178400
     41 C54        344.4910   216.4150   226.6980 c3         1 ZIY       0.167300
     42 C55        344.4630   215.2900   227.7910 c3         1 ZIY       0.112700
     43 C56        344.9680   215.7770   229.1920 c3         1 ZIY      -0.058700
     44 C57        344.0590   216.8630   229.8200 c3         1 ZIY      -0.086100
     45 C58        345.2940   214.6300   230.1960 c3         1 ZIY      -0.066400
     46 C59        344.0960   213.8800   230.8210 c3         1 ZIY      -0.089100
     47 C60        342.7540   213.4790   227.3510 c          1 ZIY       0.592100
     48 C61        341.2270   213.2140   227.3110 c3         1 ZIY       0.021700
     49 C62        340.6690   212.9620   224.8520 c          1 ZIY       0.599100
     50 C63        340.1730   211.9510   223.7810 c3         1 ZIY       0.035700
     51 C64        338.6130   211.8550   223.8300 c3         1 ZIY      -0.075400
     52 C65        337.9850   210.5140   223.3530 c3         1 ZIY      -0.055700
     53 C66        338.2840   210.1840   221.8750 c3         1 ZIY      -0.089600
     54 C67        338.3360   209.3240   224.2770 c3         1 ZIY      -0.089600
     55 C69        341.9620   211.5760   222.0480 c          1 ZIY       0.594100
     56 C70        342.3520   211.7550   220.5310 c5         1 ZIY       0.027700
     57 C71        341.3380   211.0350   219.5870 c5         1 ZIY      -0.081400
     58 C72        341.8690   209.5800   219.5910 c5         1 ZIY      -0.098400
     59 C73        343.3930   209.7980   219.4080 c5         1 ZIY       0.119000
     60 C75        346.1940   210.6970   220.1090 c          1 ZIY       0.521100
     61 C76        347.2150   210.4190   221.2150 c3         1 ZIY      -0.193100
     62 C77        340.7020   212.5220   228.5950 c3         1 ZIY       0.175300
     63 C78        341.4230   211.2030   228.9670 c3         1 ZIY      -0.121100
     64 C79        339.9690   213.3230   230.7570 c          1 ZIY       0.611100
     65 H1         341.0010   214.0950   234.9410 ha         1 ZIY       0.113000
     66 H2         341.4020   215.6250   236.8570 ha         1 ZIY       0.124000
     67 H3         338.1280   218.1270   235.5310 ha         1 ZIY       0.124000
     68 H4         337.7350   216.6110   233.6330 ha         1 ZIY       0.113000
     69 H5         341.6870   216.2200   232.8960 h1         1 ZIY       0.046367
     70 H6         341.8500   217.3210   231.5270 h1         1 ZIY       0.046367
     71 H7         340.4750   217.4940   232.6500 h1         1 ZIY       0.046367
     72 H8         341.1420   214.1760   232.2850 h1         1 ZIY       0.075700
     73 H9         338.1160   214.5080   232.5280 hc         1 ZIY       0.075200
     74 H10        339.0790   213.2860   233.3290 hc         1 ZIY       0.075200
     75 H11        340.5210   215.9710   224.5970 hn         1 ZIY       0.356500
     76 H12        342.3490   215.3280   228.1110 hn         1 ZIY       0.335500
     77 H13        340.7220   211.4260   226.2040 hn         1 ZIY       0.326500
     78 H14        339.7050   219.4810   238.5900 h1         1 ZIY       0.041033
     79 H15        339.3970   219.6950   236.8540 h1         1 ZIY       0.041033
     80 H16        338.2630   218.7480   237.8550 h1         1 ZIY       0.041033
     81 H18        340.9420   217.9580   229.8100 h1         1 ZIY       0.079700
     82 H19        339.3880   219.0690   231.4120 hc         1 ZIY       0.059200
     83 H20        337.9780   218.2950   230.6850 hc         1 ZIY       0.059200
     84 H21        339.7340   220.4880   229.3920 hc         1 ZIY       0.060200
     85 H22        337.9950   220.5780   229.6910 hc         1 ZIY       0.060200
     86 H23        338.8250   219.7520   227.2500 h1         1 ZIY       0.057700
     87 H24        337.5270   218.8010   228.0260 h1         1 ZIY       0.057700
     88 H25        338.8570   218.2190   225.6990 h1         1 ZIY       0.086700
     89 H26        337.4630   216.5080   226.7580 hc         1 ZIY       0.057700
     90 H27        338.5660   215.2400   226.2620 hc         1 ZIY       0.057700
     91 H28        337.9910   215.6290   223.8680 hc         1 ZIY       0.045700
     92 H29        337.3470   218.0310   223.8940 hc         1 ZIY       0.034867
     93 H30        336.0240   217.0510   223.2530 hc         1 ZIY       0.034867
     94 H31        335.9430   217.6650   224.9180 hc         1 ZIY       0.034867
     95 H32        336.7630   213.9220   225.2020 hc         1 ZIY       0.034867
     96 H33        335.5300   215.1290   225.6190 hc         1 ZIY       0.034867
     97 H34        335.7460   214.6220   223.9290 hc         1 ZIY       0.034867
     98 H35        341.3280   216.1670   222.6230 hc         1 ZIY       0.098700
     99 H36        339.0200   216.3140   221.6780 hc         1 ZIY       0.044700
    100 H37        339.3640   217.9220   221.0180 hc         1 ZIY       0.044700
    101 H38        340.2090   216.5020   220.3770 hc         1 ZIY       0.044700
    102 H39        344.1560   218.4510   222.1230 h1         1 ZIY       0.089700
    103 H40        343.8920   217.5630   219.8350 hc         1 ZIY       0.062700
    104 H41        342.3070   215.7160   220.0870 hc         1 ZIY       0.039033
    105 H42        343.8150   215.0770   219.4300 hc         1 ZIY       0.039033
    106 H43        343.4280   214.8310   221.1450 hc         1 ZIY       0.039033
    107 H45        346.1280   217.6090   220.9250 hc         1 ZIY       0.039033
    108 H46        345.8880   215.9440   221.5020 hc         1 ZIY       0.039033
    109 H48        342.9210   215.5310   225.4530 hc         1 ZIY       0.105700
    110 H49        344.4950   215.1660   224.8770 hc         1 ZIY       0.105700
    111 H50        345.1590   214.5110   227.4540 h1         1 ZIY       0.083700
    112 H51        345.9350   216.2640   229.0160 hc         1 ZIY       0.065700
    113 H52        344.3940   217.1140   230.8340 hc         1 ZIY       0.030700
    114 H53        344.0760   217.7860   229.2300 hc         1 ZIY       0.030700
    115 H54        343.0220   216.5150   229.8730 hc         1 ZIY       0.030700
    116 H55        345.9470   213.8990   229.7030 hc         1 ZIY       0.039700
    117 H56        345.8850   215.0540   231.0170 hc         1 ZIY       0.039700
    118 H57        344.4500   213.1800   231.5870 hc         1 ZIY       0.030367
    119 H58        343.3940   214.5720   231.2990 hc         1 ZIY       0.030367
    120 H59        343.5590   213.2960   230.0690 hc         1 ZIY       0.030367
    121 H60        340.7280   214.1870   227.2350 h1         1 ZIY       0.110700
    122 H61        340.5510   210.9810   224.1210 h1         1 ZIY       0.090700
    123 H62        338.1560   212.6830   223.2770 hc         1 ZIY       0.051700
    124 H63        338.2940   212.0010   224.8700 hc         1 ZIY       0.051700
    125 H64        336.8980   210.6490   223.4250 hc         1 ZIY       0.044700
    126 H65        337.6680   209.3430   221.5370 hc         1 ZIY       0.035533
    127 H66        338.0650   211.0440   221.2310 hc         1 ZIY       0.035533
    128 H67        339.3350   209.9030   221.7420 hc         1 ZIY       0.035533
    129 H68        338.1080   209.5610   225.3230 hc         1 ZIY       0.035533
    130 H69        337.7510   208.4390   223.9990 hc         1 ZIY       0.035533
    131 H70        339.3980   209.0590   224.2060 hc         1 ZIY       0.035533
    132 H71        339.5700   213.9990   222.3070 h1         1 ZIY       0.042367
    133 H72        341.0760   214.0480   221.3910 h1         1 ZIY       0.042367
    134 H73        339.6870   213.0980   220.7780 h1         1 ZIY       0.042367
    135 H74        342.4180   212.8240   220.3020 h1         1 ZIY       0.081700
    136 H75        341.3800   211.4600   218.5770 hc         1 ZIY       0.056700
    137 H76        340.2960   211.1020   219.9120 hc         1 ZIY       0.056700
    138 H77        341.6530   209.0800   220.5420 hc         1 ZIY       0.062700
    139 H78        341.4370   208.9660   218.7930 hc         1 ZIY       0.062700
    140 H79        343.9750   208.9590   219.8130 h1         1 ZIY       0.060200
    141 H80        343.6540   209.9260   218.3480 h1         1 ZIY       0.060200
    142 H81        348.0590   209.8110   220.8710 hc         1 ZIY       0.077367
    143 H82        347.5490   211.3750   221.6340 hc         1 ZIY       0.077367
    144 H83        346.6970   209.9620   222.0670 hc         1 ZIY       0.077367
    145 H84        339.6400   212.3030   228.4150 h1         1 ZIY       0.073700
    146 H85        340.9490   210.7290   229.8350 hc         1 ZIY       0.054700
    147 H86        341.3790   210.4890   228.1380 hc         1 ZIY       0.054700
    148 H87        342.4770   211.3770   229.2110 hc         1 ZIY       0.054700
    149 H17        343.8680   217.2440   227.0620 h1         1 ZIY       0.054700
    150 H44        345.7820   217.8070   226.1920 ho         1 ZIY       0.455000
    151 H47        345.9890   216.2780   219.7620 hc         1 ZIY       0.039033
    152 O03        340.0770   217.7930   237.4160 os         1 ZIY      -0.339100
    153 C04        339.1050   214.3210   232.9640 c3         1 ZIY      -0.038100
    154 O06        338.7080   215.5540   229.6510 o          1 ZIY      -0.602100
    155 C26        341.1240   216.7760   232.1360 c3         1 ZIY       0.093300
    156 O09        341.1140   216.6670   227.3890 o          1 ZIY      -0.629100
    157 O12        339.9450   218.9280   223.6490 o          1 ZIY      -0.593100
    158 O16        341.8450   219.1380   221.3330 o          1 ZIY      -0.494100
    159 C19        339.3220   218.9860   237.6880 c3         1 ZIY       0.147900
    160 O21        343.5070   218.2610   224.6340 o          1 ZIY      -0.496000
    161 O25        343.5830   212.6900   226.9150 o          1 ZIY      -0.599100
    162 O37        339.1150   212.4460   230.8390 o          1 ZIY      -0.477000
    163 C68        340.2380   213.4020   221.6760 c3         1 ZIY       0.093300
    164 O27        340.8640   214.1510   224.6280 o          1 ZIY      -0.632100
    165 C74        344.8960   211.5310   220.5270 c          1 ZIY       0.503100
    166 O29        342.5910   210.8970   222.8530 o          1 ZIY      -0.589100
@<TRIPOS>BOND
     1     1     2 ar  
     2     1     9 ar  
     3     1    65 1   
     4     2    12 ar  
     5     2    66 1   
     6     3     4 ar  
     7     3    12 ar  
     8     3    67 1   
     9     4     9 ar  
    10     4    68 1   
    11     5     7 1   
    12     5    18 1   
    13     5   154 2   
    14     6     7 1   
    15     6    64 1   
    16     6    72 1   
    17     6   153 1   
    18     7   155 1   
    19     8    18 1   
    20     8    24 1   
    21     8    25 1   
    22     9   153 1   
    23    10    26 1   
    24    10    31 1   
    25    10    75 1   
    26    11    42 1   
    27    11    47 1   
    28    11    76 1   
    29    12   152 1   
    30    13    48 1   
    31    13    49 1   
    32    13    77 1   
    33    14    50 1   
    34    14    55 1   
    35    14   163 1   
    36    15    35 1   
    37    15    39 1   
    38    16    56 1   
    39    16    59 1   
    40    16   165 1   
    41    17    41 1   
    42    17   150 1   
    43    18    20 1   
    44    18    81 1   
    45    19   165 2   
    46    20    22 1   
    47    20    82 1   
    48    20    83 1   
    49    21    60 2   
    50    22    24 1   
    51    22    84 1   
    52    22    85 1   
    53    23    62 1   
    54    23    64 1   
    55    24    86 1   
    56    24    87 1   
    57    25    26 1   
    58    25   156 2   
    59    26    27 1   
    60    26    88 1   
    61    27    28 1   
    62    27    89 1   
    63    27    90 1   
    64    28    29 1   
    65    28    30 1   
    66    28    91 1   
    67    29    92 1   
    68    29    93 1   
    69    29    94 1   
    70    30    95 1   
    71    30    96 1   
    72    30    97 1   
    73    31    32 1   
    74    31   157 2   
    75    32    33 1   
    76    32    34 1   
    77    32    98 1   
    78    33    99 1   
    79    33   100 1   
    80    33   101 1   
    81    34    35 1   
    82    34   158 2   
    83    35    36 1   
    84    35   102 1   
    85    36    37 1   
    86    36    38 1   
    87    36   103 1   
    88    37   104 1   
    89    37   105 1   
    90    37   106 1   
    91    38   107 1   
    92    38   108 1   
    93    38   151 1   
    94    39    40 1   
    95    39   160 2   
    96    40    41 1   
    97    40   109 1   
    98    40   110 1   
    99    41    42 1   
   100    41   149 1   
   101    42    43 1   
   102    42   111 1   
   103    43    44 1   
   104    43    45 1   
   105    43   112 1   
   106    44   113 1   
   107    44   114 1   
   108    44   115 1   
   109    45    46 1   
   110    45   116 1   
   111    45   117 1   
   112    46   118 1   
   113    46   119 1   
   114    46   120 1   
   115    47    48 1   
   116    47   161 2   
   117    48    62 1   
   118    48   121 1   
   119    49    50 1   
   120    49   164 2   
   121    50    51 1   
   122    50   122 1   
   123    51    52 1   
   124    51   123 1   
   125    51   124 1   
   126    52    53 1   
   127    52    54 1   
   128    52   125 1   
   129    53   126 1   
   130    53   127 1   
   131    53   128 1   
   132    54   129 1   
   133    54   130 1   
   134    54   131 1   
   135    55    56 1   
   136    55   166 2   
   137    56    57 1   
   138    56   135 1   
   139    57    58 1   
   140    57   136 1   
   141    57   137 1   
   142    58    59 1   
   143    58   138 1   
   144    58   139 1   
   145    59   140 1   
   146    59   141 1   
   147    60    61 1   
   148    60   165 1   
   149    61   142 1   
   150    61   143 1   
   151    61   144 1   
   152    62    63 1   
   153    62   145 1   
   154    63   146 1   
   155    63   147 1   
   156    63   148 1   
   157    64   162 2   
   158    69   155 1   
   159    70   155 1   
   160    71   155 1   
   161    73   153 1   
   162    74   153 1   
   163    78   159 1   
   164    79   159 1   
   165    80   159 1   
   166   132   163 1   
   167   133   163 1   
   168   134   163 1   
   169   152   159 1   
@<TRIPOS>SUBSTRUCTURE
     1 ZIY         1 TEMP              0 ****  ****    0 ROOT
