@<TRIPOS>MOLECULE
ZIY
  166   169     1     0     0
SMALL
abcg2


@<TRIPOS>ATOM
      1 C10        340.7470   215.2750   234.5790 ca         1 ZIY      -0.073000
      2 C13        341.1490   216.2260   235.4960 ca         1 ZIY      -0.171500
      3 C22        339.4600   217.7270   234.6720 ca         1 ZIY      -0.171500
      4 C24        339.0740   216.7550   233.7550 ca         1 ZIY      -0.073000
      5 C28        339.6550   216.1660   230.0000 c          1 ZIY       0.600100
      6 C01        340.3380   214.4320   231.5110 c3         1 ZIY       0.065700
      7 N02        340.5730   215.7210   230.8810 n          1 ZIY      -0.392800
      8 N05        339.2220   217.7640   228.1980 n          1 ZIY      -0.399800
      9 C07        339.7050   215.5220   233.6840 ca         1 ZIY      -0.122300
     10 N08        339.9300   216.8060   224.7480 ns         1 ZIY      -0.495900
     11 N11        343.1000   214.1450   227.5830 ns         1 ZIY      -0.488900
     12 C14        340.5100   217.4680   235.5480 ca         1 ZIY       0.142100
     13 N15        340.4410   212.2490   226.0250 ns         1 ZIY      -0.474900
     14 N17        340.4260   212.0450   222.4850 n          1 ZIY      -0.382800
     15 O18        343.6130   216.7370   223.1670 os         1 ZIY      -0.432100
     16 N20        343.8260   211.5030   221.3490 n          1 ZIY      -0.379800
     17 O23        345.7800   216.2950   226.3630 oh         1 ZIY      -0.670000
     18 C30        339.7570   217.6160   229.5390 c5         1 ZIY       0.035700
     19 O31        343.7360   213.2450   222.7620 o          1 ZIY      -0.588100
     20 C32        338.8440   218.5090   230.3980 c5         1 ZIY      -0.087400
     21 O33        346.6480   211.8280   221.7260 o          1 ZIY      -0.512100
     22 C34        338.3160   219.5340   229.4010 c5         1 ZIY      -0.095400
     23 O35        340.7760   213.3410   229.4560 os         1 ZIY      -0.437100
     24 C36        338.1090   218.7060   228.1420 c5         1 ZIY       0.108000
     25 C38        339.7960   217.1020   227.1830 c          1 ZIY       0.612100
     26 C39        339.0520   217.0930   225.8530 c3         1 ZIY       0.048700
     27 C40        337.9380   216.0380   225.9540 c3         1 ZIY      -0.088400
     28 C41        337.1210   215.8250   224.6800 c3         1 ZIY      -0.058700
     29 C42        336.5270   217.1200   224.1370 c3         1 ZIY      -0.092100
     30 C43        336.0160   214.8110   224.9620 c3         1 ZIY      -0.092100
     31 C44        340.3330   217.7510   223.8820 c          1 ZIY       0.611100
     32 C45        340.8960   217.2070   222.5670 c3         1 ZIY      -0.249700
     33 C46        339.7260   217.0950   221.5810 c3         1 ZIY      -0.078100
     34 C47        341.9690   218.1390   222.0350 c          1 ZIY       0.578100
     35 C48        343.4400   217.7900   222.2310 c3         1 ZIY       0.074300
     36 C49        344.0650   217.3380   220.9020 c3         1 ZIY      -0.048700
     37 C50        343.3600   216.1310   220.2880 c3         1 ZIY      -0.090600
     38 C51        345.5580   217.0740   221.0740 c3         1 ZIY      -0.090600
     39 C52        343.6240   217.0030   224.4720 c          1 ZIY       0.597100
     40 C53        343.7040   215.7380   225.2720 c3         1 ZIY      -0.178400
     41 C54        344.4450   215.9030   226.5920 c3         1 ZIY       0.167300
     42 C55        344.4730   214.5670   227.3580 c3         1 ZIY       0.112700
     43 C56        345.3310   214.6150   228.6340 c3         1 ZIY      -0.058700
     44 C57        344.9190   215.7110   229.6080 c3         1 ZIY      -0.086100
     45 C58        345.4370   213.2420   229.3210 c3         1 ZIY      -0.066400
     46 C59        344.3780   212.9210   230.3710 c3         1 ZIY      -0.089100
     47 C60        342.5300   213.1000   226.9590 c          1 ZIY       0.592100
     48 C61        341.0010   213.0040   227.1160 c3         1 ZIY       0.021700
     49 C62        340.3190   212.7650   224.7960 c          1 ZIY       0.599100
     50 C63        339.7260   211.8320   223.7440 c3         1 ZIY       0.035700
     51 C64        338.2040   211.9940   223.7130 c3         1 ZIY      -0.075400
     52 C65        337.4120   210.9050   222.9770 c3         1 ZIY      -0.055700
     53 C66        337.6180   210.8880   221.4660 c3         1 ZIY      -0.089600
     54 C67        337.6460   209.5210   223.5740 c3         1 ZIY      -0.089600
     55 C69        341.6090   211.4020   222.3470 c          1 ZIY       0.594100
     56 C70        342.4080   211.6550   221.0680 c5         1 ZIY       0.027700
     57 C71        342.1300   210.5680   220.0200 c5         1 ZIY      -0.081400
     58 C72        343.1700   209.4980   220.3320 c5         1 ZIY      -0.098400
     59 C73        344.3990   210.3040   220.7350 c5         1 ZIY       0.119000
     60 C75        345.8650   212.2330   222.5480 c          1 ZIY       0.521100
     61 C76        346.2610   212.7330   223.9030 c3         1 ZIY      -0.193100
     62 C77        340.5450   212.3620   228.4350 c3         1 ZIY       0.175300
     63 C78        341.2400   211.0580   228.7770 c3         1 ZIY      -0.121100
     64 C79        339.9650   213.3460   230.5100 c          1 ZIY       0.611100
     65 H1         341.2580   214.3190   234.5580 ha         1 ZIY       0.113000
     66 H2         341.9600   216.0170   236.1830 ha         1 ZIY       0.124000
     67 H3         338.9310   218.6700   234.6840 ha         1 ZIY       0.124000
     68 H4         338.2550   216.9730   233.0790 ha         1 ZIY       0.113000
     69 H5         342.3200   215.9450   231.9890 h1         1 ZIY       0.046367
     70 H6         342.2590   216.9430   230.5500 h1         1 ZIY       0.046367
     71 H7         341.3090   217.3830   231.9810 h1         1 ZIY       0.046367
     72 H8         341.2990   214.1140   231.9320 h1         1 ZIY       0.075700
     73 H9         338.3300   214.7310   232.2490 hc         1 ZIY       0.075200
     74 H10        339.2510   213.5140   233.1140 hc         1 ZIY       0.075200
     75 H11        340.1350   215.8330   224.5530 hn         1 ZIY       0.356500
     76 H12        342.4900   214.8020   228.0490 hn         1 ZIY       0.335500
     77 H13        340.2970   211.2580   226.1400 hn         1 ZIY       0.326500
     78 H14        340.8550   220.1330   237.3710 h1         1 ZIY       0.041033
     79 H15        340.4180   220.1770   235.6550 h1         1 ZIY       0.041033
     80 H16        339.2830   219.5060   236.8460 h1         1 ZIY       0.041033
     81 H18        340.7830   217.9830   229.5690 h1         1 ZIY       0.079700
     82 H19        339.3820   218.9480   231.2360 hc         1 ZIY       0.059200
     83 H20        338.0120   217.9270   230.8010 hc         1 ZIY       0.059200
     84 H21        339.0610   220.3100   229.2190 hc         1 ZIY       0.060200
     85 H22        337.3980   220.0160   229.7350 hc         1 ZIY       0.060200
     86 H23        338.1460   219.3130   227.2390 h1         1 ZIY       0.057700
     87 H24        337.1480   218.1840   228.1650 h1         1 ZIY       0.057700
     88 H25        338.6050   218.0690   225.6680 h1         1 ZIY       0.086700
     89 H26        337.2610   216.3300   226.7620 hc         1 ZIY       0.057700
     90 H27        338.3780   215.0820   226.2590 hc         1 ZIY       0.057700
     91 H28        337.7750   215.3970   223.9120 hc         1 ZIY       0.045700
     92 H29        337.2900   217.8380   223.8340 hc         1 ZIY       0.034867
     93 H30        335.9060   216.9200   223.2630 hc         1 ZIY       0.034867
     94 H31        335.8950   217.6020   224.8880 hc         1 ZIY       0.034867
     95 H32        336.4190   213.8790   225.3620 hc         1 ZIY       0.034867
     96 H33        335.3030   215.2040   225.6890 hc         1 ZIY       0.034867
     97 H34        335.4640   214.5690   224.0520 hc         1 ZIY       0.034867
     98 H35        341.3090   216.2080   222.7230 hc         1 ZIY       0.098700
     99 H36        338.9840   216.3960   221.9650 hc         1 ZIY       0.044700
    100 H37        339.2430   218.0570   221.4200 hc         1 ZIY       0.044700
    101 H38        340.0690   216.7160   220.6190 hc         1 ZIY       0.044700
    102 H39        343.9590   218.6920   222.5690 h1         1 ZIY       0.089700
    103 H40        343.9470   218.1890   220.2260 hc         1 ZIY       0.062700
    104 H41        342.3170   216.3370   220.0420 hc         1 ZIY       0.039033
    105 H42        343.8540   215.8510   219.3570 hc         1 ZIY       0.039033
    106 H43        343.3890   215.2630   220.9470 hc         1 ZIY       0.039033
    107 H45        346.0710   217.9340   221.5060 hc         1 ZIY       0.039033
    108 H46        345.7440   216.2110   221.7140 hc         1 ZIY       0.039033
    109 H48        342.6670   215.4410   225.4500 hc         1 ZIY       0.105700
    110 H49        344.1530   214.9460   224.6720 hc         1 ZIY       0.105700
    111 H50        344.9240   213.8170   226.7040 h1         1 ZIY       0.083700
    112 H51        346.3350   214.8550   228.2800 hc         1 ZIY       0.065700
    113 H52        345.5470   215.6870   230.5000 hc         1 ZIY       0.030700
    114 H53        345.0180   216.7060   229.1740 hc         1 ZIY       0.030700
    115 H54        343.8880   215.5930   229.9410 hc         1 ZIY       0.030700
    116 H55        345.4450   212.4590   228.5570 hc         1 ZIY       0.039700
    117 H56        346.4150   213.1870   229.8060 hc         1 ZIY       0.039700
    118 H57        344.4980   211.8970   230.7290 hc         1 ZIY       0.030367
    119 H58        344.4640   213.5750   231.2400 hc         1 ZIY       0.030367
    120 H59        343.3650   213.0190   229.9890 hc         1 ZIY       0.030367
    121 H60        340.5800   214.0120   227.0790 h1         1 ZIY       0.110700
    122 H61        339.9320   210.8060   224.0480 h1         1 ZIY       0.090700
    123 H62        337.9160   212.9800   223.3430 hc         1 ZIY       0.051700
    124 H63        337.8810   211.9770   224.7590 hc         1 ZIY       0.051700
    125 H64        336.3610   211.1610   223.1540 hc         1 ZIY       0.044700
    126 H65        336.9260   210.1850   221.0000 hc         1 ZIY       0.035533
    127 H66        337.4360   211.8690   221.0230 hc         1 ZIY       0.035533
    128 H67        338.6290   210.5790   221.1940 hc         1 ZIY       0.035533
    129 H68        337.4990   209.5200   224.6560 hc         1 ZIY       0.035533
    130 H69        336.9520   208.7960   223.1450 hc         1 ZIY       0.035533
    131 H70        338.6550   209.1540   223.3740 hc         1 ZIY       0.035533
    132 H71        339.0810   213.5310   221.8830 h1         1 ZIY       0.042367
    133 H72        340.7590   213.9560   221.6260 h1         1 ZIY       0.042367
    134 H73        339.9480   212.7850   220.5660 h1         1 ZIY       0.042367
    135 H74        342.2180   212.6490   220.6650 h1         1 ZIY       0.081700
    136 H75        342.2920   210.9820   219.0240 hc         1 ZIY       0.056700
    137 H76        341.1040   210.2020   220.0610 hc         1 ZIY       0.056700
    138 H77        342.8400   208.8690   221.1590 hc         1 ZIY       0.062700
    139 H78        343.3750   208.8510   219.4810 hc         1 ZIY       0.062700
    140 H79        345.0380   209.7630   221.4310 h1         1 ZIY       0.060200
    141 H80        344.9940   210.5730   219.8610 h1         1 ZIY       0.060200
    142 H81        347.2860   212.4450   224.1270 hc         1 ZIY       0.077367
    143 H82        346.1920   213.8230   223.9320 hc         1 ZIY       0.077367
    144 H83        345.5920   212.3570   224.6770 hc         1 ZIY       0.077367
    145 H84        339.4690   212.1920   228.3390 h1         1 ZIY       0.073700
    146 H85        340.8160   210.6220   229.6800 hc         1 ZIY       0.054700
    147 H86        341.1080   210.3260   227.9800 hc         1 ZIY       0.054700
    148 H87        342.3090   211.1940   228.9330 hc         1 ZIY       0.054700
    149 H17        343.9190   216.6470   227.2040 h1         1 ZIY       0.054700
    150 H44        345.8150   217.2520   226.2830 ho         1 ZIY       0.455000
    151 H47        346.0130   216.8680   220.1050 hc         1 ZIY       0.039033
    152 O03        340.9680   218.3380   236.4700 os         1 ZIY      -0.339100
    153 C04        339.3160   214.5010   232.6530 c3         1 ZIY      -0.038100
    154 O06        338.7280   215.4610   229.6280 o          1 ZIY      -0.602100
    155 C26        341.6630   216.5520   231.3720 c3         1 ZIY       0.093300
    156 O09        340.8280   216.4600   227.3450 o          1 ZIY      -0.629100
    157 O12        340.1830   218.9480   224.0650 o          1 ZIY      -0.593100
    158 O16        341.6950   219.1350   221.4110 o          1 ZIY      -0.494100
    159 C19        340.3400   219.5970   236.5780 c3         1 ZIY       0.147900
    160 O21        343.5300   218.1170   224.9240 o          1 ZIY      -0.496000
    161 O25        343.1400   212.2770   226.2970 o          1 ZIY      -0.599100
    162 O37        339.1120   212.5210   230.7030 o          1 ZIY      -0.477000
    163 C68        340.0470   213.1310   221.5950 c3         1 ZIY       0.093300
    164 O27        340.6290   213.9180   224.5260 o          1 ZIY      -0.632100
    165 C74        344.3730   212.3470   222.2250 c          1 ZIY       0.503100
    166 O29        342.0250   210.6040   223.1730 o          1 ZIY      -0.589100
@<TRIPOS>BOND
     1     1     2 ar  
     2     1     9 ar  
     3     1    65 1   
     4     2    12 ar  
     5     2    66 1   
     6     3     4 ar  
     7     3    12 ar  
     8     3    67 1   
     9     4     9 ar  
    10     4    68 1   
    11     5     7 1   
    12     5    18 1   
    13     5   154 2   
    14     6     7 1   
    15     6    64 1   
    16     6    72 1   
    17     6   153 1   
    18     7   155 1   
    19     8    18 1   
    20     8    24 1   
    21     8    25 1   
    22     9   153 1   
    23    10    26 1   
    24    10    31 1   
    25    10    75 1   
    26    11    42 1   
    27    11    47 1   
    28    11    76 1   
    29    12   152 1   
    30    13    48 1   
    31    13    49 1   
    32    13    77 1   
    33    14    50 1   
    34    14    55 1   
    35    14   163 1   
    36    15    35 1   
    37    15    39 1   
    38    16    56 1   
    39    16    59 1   
    40    16   165 1   
    41    17    41 1   
    42    17   150 1   
    43    18    20 1   
    44    18    81 1   
    45    19   165 2   
    46    20    22 1   
    47    20    82 1   
    48    20    83 1   
    49    21    60 2   
    50    22    24 1   
    51    22    84 1   
    52    22    85 1   
    53    23    62 1   
    54    23    64 1   
    55    24    86 1   
    56    24    87 1   
    57    25    26 1   
    58    25   156 2   
    59    26    27 1   
    60    26    88 1   
    61    27    28 1   
    62    27    89 1   
    63    27    90 1   
    64    28    29 1   
    65    28    30 1   
    66    28    91 1   
    67    29    92 1   
    68    29    93 1   
    69    29    94 1   
    70    30    95 1   
    71    30    96 1   
    72    30    97 1   
    73    31    32 1   
    74    31   157 2   
    75    32    33 1   
    76    32    34 1   
    77    32    98 1   
    78    33    99 1   
    79    33   100 1   
    80    33   101 1   
    81    34    35 1   
    82    34   158 2   
    83    35    36 1   
    84    35   102 1   
    85    36    37 1   
    86    36    38 1   
    87    36   103 1   
    88    37   104 1   
    89    37   105 1   
    90    37   106 1   
    91    38   107 1   
    92    38   108 1   
    93    38   151 1   
    94    39    40 1   
    95    39   160 2   
    96    40    41 1   
    97    40   109 1   
    98    40   110 1   
    99    41    42 1   
   100    41   149 1   
   101    42    43 1   
   102    42   111 1   
   103    43    44 1   
   104    43    45 1   
   105    43   112 1   
   106    44   113 1   
   107    44   114 1   
   108    44   115 1   
   109    45    46 1   
   110    45   116 1   
   111    45   117 1   
   112    46   118 1   
   113    46   119 1   
   114    46   120 1   
   115    47    48 1   
   116    47   161 2   
   117    48    62 1   
   118    48   121 1   
   119    49    50 1   
   120    49   164 2   
   121    50    51 1   
   122    50   122 1   
   123    51    52 1   
   124    51   123 1   
   125    51   124 1   
   126    52    53 1   
   127    52    54 1   
   128    52   125 1   
   129    53   126 1   
   130    53   127 1   
   131    53   128 1   
   132    54   129 1   
   133    54   130 1   
   134    54   131 1   
   135    55    56 1   
   136    55   166 2   
   137    56    57 1   
   138    56   135 1   
   139    57    58 1   
   140    57   136 1   
   141    57   137 1   
   142    58    59 1   
   143    58   138 1   
   144    58   139 1   
   145    59   140 1   
   146    59   141 1   
   147    60    61 1   
   148    60   165 1   
   149    61   142 1   
   150    61   143 1   
   151    61   144 1   
   152    62    63 1   
   153    62   145 1   
   154    63   146 1   
   155    63   147 1   
   156    63   148 1   
   157    64   162 2   
   158    69   155 1   
   159    70   155 1   
   160    71   155 1   
   161    73   153 1   
   162    74   153 1   
   163    78   159 1   
   164    79   159 1   
   165    80   159 1   
   166   132   163 1   
   167   133   163 1   
   168   134   163 1   
   169   152   159 1   
@<TRIPOS>SUBSTRUCTURE
     1 ZIY         1 TEMP              0 ****  ****    0 ROOT
