@<TRIPOS>MOLECULE
ZJ0
   49    49     1     0     0
SMALL
bcc


@<TRIPOS>ATOM
      1 O8           0.9940    -2.3010    -0.0370 o          1 ZJ0      -0.518100
      2 C1           1.1340    -1.0960    -0.0270 c          1 ZJ0       0.581700
      3 C2           2.5080    -0.5020    -0.0220 ca         1 ZJ0      -0.104600
      4 C7           3.5970    -1.3670    -0.0320 ca         1 ZJ0      -0.161500
      5 C6           4.8870    -0.8500    -0.0280 ca         1 ZJ0       0.166100
      6 O19          5.8860    -1.7500    -0.0400 os         1 ZJ0      -0.316900
      7 C21          7.2240    -1.2900    -0.0390 c3         1 ZJ0       0.126200
      8 C5           5.0970     0.5300    -0.0120 ca         1 ZJ0      -0.284000
      9 C4           3.9990     1.3870    -0.0020 ca         1 ZJ0       0.166100
     10 O18          4.1030     2.7270     0.0130 os         1 ZJ0      -0.316900
     11 C20          5.3900     3.3120     0.0280 c3         1 ZJ0       0.126200
     12 C3           2.7030     0.8740    -0.0070 ca         1 ZJ0      -0.161500
     13 C9          -0.0540    -0.1680    -0.0190 c3         1 ZJ0      -0.174400
     14 C10         -1.3990    -0.8760    -0.0190 c3         1 ZJ0      -0.067400
     15 C11         -2.5640     0.1070    -0.0160 c3         1 ZJ0      -0.076400
     16 C12         -3.9190    -0.5890    -0.0070 c3         1 ZJ0      -0.074400
     17 C13         -5.0960     0.3780    -0.0090 c3         1 ZJ0      -0.074400
     18 C14         -6.4470    -0.3260     0.0010 c3         1 ZJ0      -0.074400
     19 C15         -7.6290     0.6350     0.0010 c3         1 ZJ0      -0.075400
     20 C16         -8.9800    -0.0700     0.0090 c3         1 ZJ0      -0.075400
     21 C17        -10.1530     0.9000     0.0090 c3         1 ZJ0      -0.088100
     22 H1           3.4520    -2.4390    -0.0440 ha         1 ZJ0       0.158500
     23 H2           7.8530    -2.1770    -0.0510 h1         1 ZJ0       0.041533
     24 H3           7.4490    -0.6870    -0.9220 h1         1 ZJ0       0.041533
     25 H4           7.4550    -0.7080     0.8570 h1         1 ZJ0       0.041533
     26 H5           6.1020     0.9280    -0.0090 ha         1 ZJ0       0.140000
     27 H6           5.2390     4.3880     0.0410 h1         1 ZJ0       0.041533
     28 H7           5.9570     3.0250     0.9160 h1         1 ZJ0       0.041533
     29 H8           5.9680     3.0480    -0.8610 h1         1 ZJ0       0.041533
     30 H9           1.8740     1.5680    -0.0000 ha         1 ZJ0       0.158500
     31 H10          0.0280     0.4890     0.8540 hc         1 ZJ0       0.063700
     32 H11          0.0240     0.4990    -0.8850 hc         1 ZJ0       0.063700
     33 H12         -1.4780    -1.5250    -0.8950 hc         1 ZJ0       0.052700
     34 H13         -1.4760    -1.5290     0.8550 hc         1 ZJ0       0.052700
     35 H14         -2.4860     0.7640     0.8580 hc         1 ZJ0       0.035700
     36 H15         -2.4940     0.7600    -0.8930 hc         1 ZJ0       0.035700
     37 H16         -3.9920    -1.2500    -0.8780 hc         1 ZJ0       0.039700
     38 H17         -3.9860    -1.2400     0.8720 hc         1 ZJ0       0.039700
     39 H18         -5.0240     1.0390     0.8620 hc         1 ZJ0       0.036700
     40 H19         -5.0300     1.0280    -0.8880 hc         1 ZJ0       0.036700
     41 H20         -6.5190    -0.9880    -0.8700 hc         1 ZJ0       0.037700
     42 H21         -6.5110    -0.9770     0.8800 hc         1 ZJ0       0.037700
     43 H22         -7.5600     1.2960     0.8730 hc         1 ZJ0       0.036700
     44 H23         -7.5670     1.2880    -0.8770 hc         1 ZJ0       0.036700
     45 H24         -9.0490    -0.7300    -0.8630 hc         1 ZJ0       0.036700
     46 H25         -9.0420    -0.7220     0.8860 hc         1 ZJ0       0.036700
     47 H26        -10.1260     1.5480     0.8880 hc         1 ZJ0       0.031367
     48 H27        -10.1320     1.5420    -0.8730 hc         1 ZJ0       0.031367
     49 H28        -11.1100     0.3770     0.0140 hc         1 ZJ0       0.031367
@<TRIPOS>BOND
     1     1     2 2   
     2     2     3 1   
     3     2    13 1   
     4     3     4 ar  
     5     3    12 ar  
     6     4     5 ar  
     7     4    22 1   
     8     5     6 1   
     9     5     8 ar  
    10     6     7 1   
    11     7    23 1   
    12     7    24 1   
    13     7    25 1   
    14     8     9 ar  
    15     8    26 1   
    16     9    10 1   
    17     9    12 ar  
    18    10    11 1   
    19    11    27 1   
    20    11    28 1   
    21    11    29 1   
    22    12    30 1   
    23    13    14 1   
    24    13    31 1   
    25    13    32 1   
    26    14    15 1   
    27    14    33 1   
    28    14    34 1   
    29    15    16 1   
    30    15    35 1   
    31    15    36 1   
    32    16    17 1   
    33    16    37 1   
    34    16    38 1   
    35    17    18 1   
    36    17    39 1   
    37    17    40 1   
    38    18    19 1   
    39    18    41 1   
    40    18    42 1   
    41    19    20 1   
    42    19    43 1   
    43    19    44 1   
    44    20    21 1   
    45    20    45 1   
    46    20    46 1   
    47    21    47 1   
    48    21    48 1   
    49    21    49 1   
@<TRIPOS>SUBSTRUCTURE
     1 ZJ0         1 TEMP              0 ****  ****    0 ROOT
