@<TRIPOS>MOLECULE
ZJ0
   49    49     1     0     0
SMALL
No Charge or Current Charge


@<TRIPOS>ATOM
      1 O8           1.0320    -2.3830    -0.0350 o          1 ZJ0      -0.518100
      2 C1           1.1750    -1.1640    -0.0240 c          1 ZJ0       0.581700
      3 C2           2.5680    -0.5510    -0.0200 ca         1 ZJ0      -0.104600
      4 C7           3.7060    -1.3900    -0.0290 ca         1 ZJ0      -0.143500
      5 C6           5.0040    -0.8580    -0.0250 ca         1 ZJ0       0.166100
      6 O19          6.0600    -1.7470    -0.0340 os         1 ZJ0      -0.340100
      7 C21          7.4320    -1.3150    -0.0320 c3         1 ZJ0       0.149400
      8 C5           5.1910     0.5390    -0.0130 ca         1 ZJ0      -0.266000
      9 C4           4.0700     1.3920    -0.0040 ca         1 ZJ0       0.166100
     10 O18          4.1860     2.7670     0.0080 os         1 ZJ0      -0.340100
     11 C20          5.4610     3.4340     0.0120 c3         1 ZJ0       0.149400
     12 C3           2.7750     0.8500    -0.0080 ca         1 ZJ0      -0.143500
     13 C9          -0.0580    -0.2360    -0.0140 c3         1 ZJ0      -0.174400
     14 C10         -1.4390    -0.9390    -0.0180 c3         1 ZJ0      -0.067400
     15 C11         -2.6180     0.0590    -0.0080 c3         1 ZJ0      -0.076400
     16 C12         -3.9970    -0.6360    -0.0120 c3         1 ZJ0      -0.074400
     17 C13         -5.1760     0.3620    -0.0010 c3         1 ZJ0      -0.074400
     18 C14         -6.5560    -0.3320    -0.0060 c3         1 ZJ0      -0.074400
     19 C15         -7.7340     0.6660     0.0050 c3         1 ZJ0      -0.075400
     20 C16         -9.1140    -0.0280     0.0010 c3         1 ZJ0      -0.075400
     21 C17        -10.2900     0.9670     0.0120 c3         1 ZJ0      -0.088100
     22 H1           3.5900    -2.4710    -0.0380 ha         1 ZJ0       0.140500
     23 H2           8.1030    -2.1830    -0.0400 h1         1 ZJ0       0.041533
     24 H3           7.6520    -0.7070    -0.9190 h1         1 ZJ0       0.041533
     25 H4           7.6530    -0.7230     0.8660 h1         1 ZJ0       0.041533
     26 H5           6.1920     0.9540    -0.0100 ha         1 ZJ0       0.122000
     27 H6           5.3200     4.5220     0.0220 h1         1 ZJ0       0.041533
     28 H7           6.0420     3.1580     0.9020 h1         1 ZJ0       0.041533
     29 H8           6.0400     3.1740    -0.8830 h1         1 ZJ0       0.041533
     30 H9           1.9380     1.5420    -0.0010 ha         1 ZJ0       0.140500
     31 H10          0.0440     0.4430     0.8400 hc         1 ZJ0       0.063700
     32 H11          0.0420     0.4590    -0.8560 hc         1 ZJ0       0.063700
     33 H12         -1.5170    -1.5790    -0.9070 hc         1 ZJ0       0.052700
     34 H13         -1.5140    -1.5950     0.8580 hc         1 ZJ0       0.052700
     35 H14         -2.5400     0.6990     0.8800 hc         1 ZJ0       0.035700
     36 H15         -2.5420     0.7150    -0.8840 hc         1 ZJ0       0.035700
     37 H16         -4.0760    -1.2760    -0.9000 hc         1 ZJ0       0.039700
     38 H17         -4.0730    -1.2920     0.8640 hc         1 ZJ0       0.039700
     39 H18         -5.0980     1.0020     0.8860 hc         1 ZJ0       0.036700
     40 H19         -5.1000     1.0180    -0.8780 hc         1 ZJ0       0.036700
     41 H20         -6.6340    -0.9720    -0.8930 hc         1 ZJ0       0.037700
     42 H21         -6.6310    -0.9880     0.8710 hc         1 ZJ0       0.037700
     43 H22         -7.6560     1.3060     0.8930 hc         1 ZJ0       0.036700
     44 H23         -7.6590     1.3220    -0.8710 hc         1 ZJ0       0.036700
     45 H24         -9.1970    -0.6680    -0.8860 hc         1 ZJ0       0.036700
     46 H25         -9.1940    -0.6830     0.8770 hc         1 ZJ0       0.036700
     47 H26        -10.2550     1.6000     0.9070 hc         1 ZJ0       0.031367
     48 H27        -10.2580     1.6160    -0.8720 hc         1 ZJ0       0.031367
     49 H28        -11.2460     0.4300     0.0090 hc         1 ZJ0       0.031367
@<TRIPOS>BOND
     1     1     2 2   
     2     2     3 1   
     3     2    13 1   
     4     3     4 ar  
     5     3    12 ar  
     6     4     5 ar  
     7     4    22 1   
     8     5     6 1   
     9     5     8 ar  
    10     6     7 1   
    11     7    23 1   
    12     7    24 1   
    13     7    25 1   
    14     8     9 ar  
    15     8    26 1   
    16     9    10 1   
    17     9    12 ar  
    18    10    11 1   
    19    11    27 1   
    20    11    28 1   
    21    11    29 1   
    22    12    30 1   
    23    13    14 1   
    24    13    31 1   
    25    13    32 1   
    26    14    15 1   
    27    14    33 1   
    28    14    34 1   
    29    15    16 1   
    30    15    35 1   
    31    15    36 1   
    32    16    17 1   
    33    16    37 1   
    34    16    38 1   
    35    17    18 1   
    36    17    39 1   
    37    17    40 1   
    38    18    19 1   
    39    18    41 1   
    40    18    42 1   
    41    19    20 1   
    42    19    43 1   
    43    19    44 1   
    44    20    21 1   
    45    20    45 1   
    46    20    46 1   
    47    21    47 1   
    48    21    48 1   
    49    21    49 1   
@<TRIPOS>SUBSTRUCTURE
     1 ZJ0         1 TEMP              0 ****  ****    0 ROOT
