@<TRIPOS>MOLECULE
ZJ1
   67    69     1     0     0
SMALL
bcc


@<TRIPOS>ATOM
      1 C6         -15.9630   -27.7560    -1.6240 ca         1 ZJ1      -0.049300
      2 C7         -17.2120   -27.7530    -2.4970 c3         1 ZJ1      -0.001700
      3 C8         -18.4790   -28.0580    -1.6980 c3         1 ZJ1      -0.083767
      4 C9         -17.3690   -26.3660    -3.1360 c3         1 ZJ1      -0.083767
      5 C10        -17.0720   -28.8120    -3.5970 c3         1 ZJ1      -0.083767
      6 C3         -13.6240   -27.6800    -0.0650 ca         1 ZJ1       0.091600
      7 C2         -11.2500   -29.4220     2.4160 c3         1 ZJ1      -0.180600
      8 C14        -12.8970   -25.1690     0.7460 c          1 ZJ1       0.674100
      9 C15        -13.8100   -23.2700    -0.5140 c6         1 ZJ1       0.110700
     10 C16        -15.0740   -23.8090    -1.1860 c6         1 ZJ1      -0.090900
     11 C17        -16.0740   -22.6890    -1.4480 c6         1 ZJ1      -0.071900
     12 C1         -12.5670   -29.7450     3.0900 c3         1 ZJ1      -0.066100
     13 C21        -10.9220   -26.0220     1.9510 ca         1 ZJ1      -0.246600
     14 C22         -9.6140   -25.5890     1.7980 ca         1 ZJ1      -0.056000
     15 C23         -8.8480   -25.3340     2.9250 ca         1 ZJ1      -0.254300
     16 C24         -9.4260   -25.5270     4.1700 ca         1 ZJ1       0.414200
     17 C25        -11.4010   -26.1860     3.2490 ca         1 ZJ1       0.439200
     18 C18        -15.4480   -21.5720    -2.2770 c6         1 ZJ1      -0.077400
     19 C19        -14.1830   -21.0400    -1.6120 c6         1 ZJ1      -0.071900
     20 O1         -12.1450   -29.9610     0.0080 o          1 ZJ1      -0.606300
     21 O2         -10.1190   -28.4940     0.2250 o          1 ZJ1      -0.606300
     22 N1         -12.4550   -27.5670     0.7560 nh         1 ZJ1      -0.599900
     23 C4         -14.8490   -27.9280     0.5250 ca         1 ZJ1      -0.104000
     24 C5         -16.0030   -27.9690    -0.2480 ca         1 ZJ1      -0.121000
     25 C11        -14.7130   -27.5180    -2.2010 ca         1 ZJ1      -0.121000
     26 C12        -13.5590   -27.4820    -1.4400 ca         1 ZJ1      -0.104000
     27 C13        -11.7980   -26.2490     0.7460 c3         1 ZJ1       0.197800
     28 N2         -12.8360   -24.3250    -0.2880 ns         1 ZJ1      -0.563900
     29 C20        -13.1800   -22.1570    -1.3450 c6         1 ZJ1      -0.090900
     30 N3         -10.6750   -25.9480     4.3330 nb         1 ZJ1      -0.673000
     31 H1         -18.4380   -29.0400    -1.2240 hc         1 ZJ1       0.036589
     32 H2         -18.6630   -27.3120    -0.9240 hc         1 ZJ1       0.036589
     33 H3         -19.3410   -28.0550    -2.3670 hc         1 ZJ1       0.036589
     34 H4         -17.4890   -25.5940    -2.3730 hc         1 ZJ1       0.036589
     35 H5         -16.5110   -26.0950    -3.7520 hc         1 ZJ1       0.036589
     36 H6         -18.2550   -26.3430    -3.7740 hc         1 ZJ1       0.036589
     37 H7         -16.9620   -29.8110    -3.1690 hc         1 ZJ1       0.036589
     38 H8         -17.9630   -28.8150    -4.2280 hc         1 ZJ1       0.036589
     39 H9         -16.2130   -28.6300    -4.2440 hc         1 ZJ1       0.036589
     40 H10        -10.6020   -30.3000     2.3570 h1         1 ZJ1       0.101700
     41 H11        -10.7000   -28.6400     2.9360 h1         1 ZJ1       0.101700
     42 H12        -14.0820   -22.8590     0.4630 h1         1 ZJ1       0.078700
     43 H13        -15.5220   -24.5850    -0.5610 hc         1 ZJ1       0.046450
     44 H14        -14.7960   -24.2860    -2.1320 hc         1 ZJ1       0.046450
     45 H15        -16.4200   -22.2800    -0.4920 hc         1 ZJ1       0.043450
     46 H16        -16.9570   -23.0900    -1.9510 hc         1 ZJ1       0.043450
     47 H17        -12.3660   -30.0970     4.1010 hc         1 ZJ1       0.051033
     48 H18        -13.2070   -28.8680     3.1670 hc         1 ZJ1       0.051033
     49 H19        -13.1090   -30.5310     2.5660 hc         1 ZJ1       0.051033
     50 H20         -9.1950   -25.4520     0.8090 ha         1 ZJ1       0.144000
     51 H21         -7.8240   -24.9970     2.8430 ha         1 ZJ1       0.146000
     52 H22         -8.8560   -25.3370     5.0730 h4         1 ZJ1       0.021100
     53 H23        -12.4130   -26.5330     3.4170 h4         1 ZJ1       0.044100
     54 H24        -15.2000   -21.9560    -3.2720 hc         1 ZJ1       0.040700
     55 H25        -16.1660   -20.7620    -2.4250 hc         1 ZJ1       0.040700
     56 H26        -13.7200   -20.2720    -2.2350 hc         1 ZJ1       0.043450
     57 H27        -14.4470   -20.5560    -0.6660 hc         1 ZJ1       0.043450
     58 H28        -14.9100   -28.0770     1.5950 ha         1 ZJ1       0.137000
     59 H29        -16.9420   -28.1590     0.2520 ha         1 ZJ1       0.135000
     60 H30        -14.6290   -27.3530    -3.2680 ha         1 ZJ1       0.135000
     61 H31        -12.6060   -27.2880    -1.9190 ha         1 ZJ1       0.137000
     62 H32        -11.1820   -26.1340    -0.1520 h1         1 ZJ1       0.058700
     63 H33        -12.1850   -24.5200    -1.0340 hn         1 ZJ1       0.309500
     64 H34        -12.8360   -22.5710    -2.3000 hc         1 ZJ1       0.046450
     65 H35        -12.2980   -21.7660    -0.8310 hc         1 ZJ1       0.046450
     66 O3         -13.7120   -25.0940     1.6490 o          1 ZJ1      -0.580100
     67 S1         -11.4280   -28.9100     0.7120 s6         1 ZJ1       1.190900
@<TRIPOS>BOND
     1     1     2 1   
     2     1    24 ar  
     3     1    25 ar  
     4     2     3 1   
     5     2     4 1   
     6     2     5 1   
     7     3    31 1   
     8     3    32 1   
     9     3    33 1   
    10     4    34 1   
    11     4    35 1   
    12     4    36 1   
    13     5    37 1   
    14     5    38 1   
    15     5    39 1   
    16     6    22 1   
    17     6    23 ar  
    18     6    26 ar  
    19     7    12 1   
    20     7    40 1   
    21     7    41 1   
    22     7    67 1   
    23     8    27 1   
    24     8    28 1   
    25     8    66 2   
    26     9    10 1   
    27     9    28 1   
    28     9    29 1   
    29     9    42 1   
    30    10    11 1   
    31    10    43 1   
    32    10    44 1   
    33    11    18 1   
    34    11    45 1   
    35    11    46 1   
    36    12    47 1   
    37    12    48 1   
    38    12    49 1   
    39    13    14 ar  
    40    13    17 ar  
    41    13    27 1   
    42    14    15 ar  
    43    14    50 1   
    44    15    16 ar  
    45    15    51 1   
    46    16    30 ar  
    47    16    52 1   
    48    17    30 ar  
    49    17    53 1   
    50    18    19 1   
    51    18    54 1   
    52    18    55 1   
    53    19    29 1   
    54    19    56 1   
    55    19    57 1   
    56    20    67 2   
    57    21    67 2   
    58    22    27 1   
    59    22    67 1   
    60    23    24 ar  
    61    23    58 1   
    62    24    59 1   
    63    25    26 ar  
    64    25    60 1   
    65    26    61 1   
    66    27    62 1   
    67    28    63 1   
    68    29    64 1   
    69    29    65 1   
@<TRIPOS>SUBSTRUCTURE
     1 ZJ1         1 TEMP              0 ****  ****    0 ROOT
