@<TRIPOS>MOLECULE
ZJ1
   67    69     1     0     0
SMALL
No Charge or Current Charge


@<TRIPOS>ATOM
      1 C6         -16.2680   -27.6200    -1.2670 ca         1 ZJ1      -0.049300
      2 C7         -17.6650   -27.5800    -1.9430 c3         1 ZJ1      -0.001700
      3 C8         -18.8170   -27.9950    -0.9850 c3         1 ZJ1      -0.083767
      4 C9         -17.9480   -26.1340    -2.4340 c3         1 ZJ1      -0.083767
      5 C10        -17.6790   -28.5500    -3.1560 c3         1 ZJ1      -0.083767
      6 C3         -13.6710   -27.5970    -0.0790 ca         1 ZJ1       0.230000
      7 C2          -9.8800   -28.7260     1.0660 c3         1 ZJ1      -0.291400
      8 C14        -12.9300   -25.0090     0.8530 c          1 ZJ1       0.607100
      9 C15        -13.5430   -23.2660    -0.8770 c6         1 ZJ1       0.110700
     10 C16        -14.8430   -23.8020    -1.5320 c6         1 ZJ1      -0.090900
     11 C17        -15.7030   -22.6520    -2.1100 c6         1 ZJ1      -0.071900
     12 C1         -10.3410   -29.5420     2.2980 c3         1 ZJ1      -0.066100
     13 C21        -11.6600   -26.3170     2.6300 ca         1 ZJ1      -0.181300
     14 C22        -10.4000   -25.9330     3.1290 ca         1 ZJ1      -0.038000
     15 C23        -10.1700   -26.0310     4.5090 ca         1 ZJ1      -0.171000
     16 C24        -11.1980   -26.4930     5.3450 ca         1 ZJ1       0.348900
     17 C25        -12.6370   -26.7530     3.5470 ca         1 ZJ1       0.373900
     18 C18        -14.8940   -21.8130    -3.1290 c6         1 ZJ1      -0.077400
     19 C19        -13.5780   -21.2900    -2.5040 c6         1 ZJ1      -0.071900
     20 O1         -11.7610   -29.8100    -0.4850 o          1 ZJ1      -0.535500
     21 O2         -10.5970   -27.6960    -1.2700 o          1 ZJ1      -0.535500
     22 N1         -12.4050   -27.5370     0.5410 nh         1 ZJ1      -0.738300
     23 C4         -14.7980   -27.9720     0.6670 ca         1 ZJ1      -0.086000
     24 C5         -16.0800   -27.9830     0.0890 ca         1 ZJ1      -0.103000
     25 C11        -15.1230   -27.2700    -2.0170 ca         1 ZJ1      -0.103000
     26 C12        -13.8470   -27.2540    -1.4330 ca         1 ZJ1      -0.086000
     27 C13        -11.9740   -26.2270     1.1350 c3         1 ZJ1       0.197800
     28 N2         -12.7330   -24.3730    -0.3590 ns         1 ZJ1      -0.496900
     29 C20        -12.7340   -22.4510    -1.9190 c6         1 ZJ1      -0.090900
     30 N3         -12.4170   -26.8460     4.8810 nb         1 ZJ1      -0.673000
     31 H1         -18.6800   -29.0210    -0.6220 hc         1 ZJ1       0.036589
     32 H2         -18.8740   -27.3220    -0.1200 hc         1 ZJ1       0.036589
     33 H3         -19.7860   -27.9540    -1.4980 hc         1 ZJ1       0.036589
     34 H4         -17.9060   -25.4260    -1.5970 hc         1 ZJ1       0.036589
     35 H5         -17.2180   -25.8100    -3.1850 hc         1 ZJ1       0.036589
     36 H6         -18.9440   -26.0610    -2.8890 hc         1 ZJ1       0.036589
     37 H7         -17.4390   -29.5710    -2.8360 hc         1 ZJ1       0.036589
     38 H8         -18.6670   -28.5680    -3.6320 hc         1 ZJ1       0.036589
     39 H9         -16.9510   -28.2550    -3.9200 hc         1 ZJ1       0.036589
     40 H10         -9.0600   -29.2450     0.5580 h1         1 ZJ1       0.101700
     41 H11         -9.5390   -27.7280     1.3510 h1         1 ZJ1       0.101700
     42 H12        -13.8090   -22.6030    -0.0390 h1         1 ZJ1       0.078700
     43 H13        -15.4310   -24.3680    -0.7970 hc         1 ZJ1       0.046450
     44 H14        -14.5900   -24.5040    -2.3380 hc         1 ZJ1       0.046450
     45 H15        -16.0560   -22.0070    -1.2930 hc         1 ZJ1       0.043450
     46 H16        -16.6000   -23.0630    -2.5930 hc         1 ZJ1       0.043450
     47 H17         -9.5350   -29.6030     3.0390 hc         1 ZJ1       0.051033
     48 H18        -11.2120   -29.0830     2.7800 hc         1 ZJ1       0.051033
     49 H19        -10.6140   -30.5650     2.0090 hc         1 ZJ1       0.051033
     50 H20         -9.6150   -25.5690     2.4670 ha         1 ZJ1       0.126000
     51 H21         -9.2100   -25.7520     4.9340 ha         1 ZJ1       0.128000
     52 H22        -11.0440   -26.5780     6.4200 h4         1 ZJ1       0.021100
     53 H23        -13.6320   -27.0340     3.2100 h4         1 ZJ1       0.044100
     54 H24        -14.6660   -22.4260    -4.0130 hc         1 ZJ1       0.040700
     55 H25        -15.5010   -20.9690    -3.4840 hc         1 ZJ1       0.040700
     56 H26        -12.9940   -20.7500    -3.2620 hc         1 ZJ1       0.043450
     57 H27        -13.8070   -20.5630    -1.7120 hc         1 ZJ1       0.043450
     58 H28        -14.6820   -28.2620     1.7060 ha         1 ZJ1       0.119000
     59 H29        -16.9130   -28.2730     0.7210 ha         1 ZJ1       0.117000
     60 H30        -15.2150   -26.9860    -3.0620 ha         1 ZJ1       0.117000
     61 H31        -12.9970   -26.9490    -2.0360 ha         1 ZJ1       0.119000
     62 H32        -11.0390   -25.9300     0.6420 h1         1 ZJ1       0.058700
     63 H33        -12.0020   -24.7480    -0.9520 hn         1 ZJ1       0.309500
     64 H34        -12.3990   -23.1090    -2.7330 hc         1 ZJ1       0.046450
     65 H35        -11.8270   -22.0460    -1.4500 hc         1 ZJ1       0.046450
     66 O3         -13.8020   -24.6370     1.6310 o          1 ZJ1      -0.580100
     67 S1         -11.1610   -28.5050    -0.1860 s6         1 ZJ1       1.160100
@<TRIPOS>BOND
     1     1     2 1   
     2     1    24 ar  
     3     1    25 ar  
     4     2     3 1   
     5     2     4 1   
     6     2     5 1   
     7     3    31 1   
     8     3    32 1   
     9     3    33 1   
    10     4    34 1   
    11     4    35 1   
    12     4    36 1   
    13     5    37 1   
    14     5    38 1   
    15     5    39 1   
    16     6    22 1   
    17     6    23 ar  
    18     6    26 ar  
    19     7    12 1   
    20     7    40 1   
    21     7    41 1   
    22     7    67 1   
    23     8    27 1   
    24     8    28 1   
    25     8    66 2   
    26     9    10 1   
    27     9    28 1   
    28     9    29 1   
    29     9    42 1   
    30    10    11 1   
    31    10    43 1   
    32    10    44 1   
    33    11    18 1   
    34    11    45 1   
    35    11    46 1   
    36    12    47 1   
    37    12    48 1   
    38    12    49 1   
    39    13    14 ar  
    40    13    17 ar  
    41    13    27 1   
    42    14    15 ar  
    43    14    50 1   
    44    15    16 ar  
    45    15    51 1   
    46    16    30 ar  
    47    16    52 1   
    48    17    30 ar  
    49    17    53 1   
    50    18    19 1   
    51    18    54 1   
    52    18    55 1   
    53    19    29 1   
    54    19    56 1   
    55    19    57 1   
    56    20    67 2   
    57    21    67 2   
    58    22    27 1   
    59    22    67 1   
    60    23    24 ar  
    61    23    58 1   
    62    24    59 1   
    63    25    26 ar  
    64    25    60 1   
    65    26    61 1   
    66    27    62 1   
    67    28    63 1   
    68    29    64 1   
    69    29    65 1   
@<TRIPOS>SUBSTRUCTURE
     1 ZJ1         1 TEMP              0 ****  ****    0 ROOT
