@<TRIPOS>MOLECULE
ZJ2
   51    54     1     0     0
SMALL
abcg2


@<TRIPOS>ATOM
      1 C01        -12.2530   -62.2950   -14.5410 ca         1 ZJ2      -0.237000
      2 C02        -11.7190   -63.0040   -15.6350 ca         1 ZJ2       0.408900
      3 C04         -9.8300   -63.4150   -14.4280 ca         1 ZJ2       0.400900
      4 C06        -11.4620   -62.2060   -13.4190 ca         1 ZJ2       0.137900
      5 C09        -11.1530   -63.1440   -18.8630 ca         1 ZJ2      -0.056300
      6 C10        -10.5410   -63.8640   -19.8850 ca         1 ZJ2      -0.093500
      7 C11        -10.5880   -65.2600   -19.9260 ca         1 ZJ2      -0.058800
      8 C12        -11.2860   -65.9420   -18.9220 ca         1 ZJ2      -0.093500
      9 C13        -11.9140   -65.2590   -17.8910 ca         1 ZJ2      -0.056300
     10 C14        -11.8350   -63.8590   -17.8770 ca         1 ZJ2       0.282000
     11 C16        -12.6120   -66.0020   -16.7880 c3         1 ZJ2      -0.047300
     12 C18         -9.8840   -65.9390   -21.0040 ce         1 ZJ2      -0.104200
     13 C19         -9.7840   -67.2700   -21.1770 cf         1 ZJ2      -0.106700
     14 C20        -13.7820   -62.6330   -16.9270 c6         1 ZJ2       0.158800
     15 C21         -7.8760   -64.7950   -15.2100 ca         1 ZJ2       0.347000
     16 C22         -8.3360   -65.1920   -16.4780 ca         1 ZJ2      -0.167500
     17 C23         -7.5560   -66.0070   -17.2770 ca         1 ZJ2      -0.039000
     18 C24         -6.2990   -66.4480   -16.8440 ca         1 ZJ2      -0.063000
     19 C25         -5.8350   -66.0530   -15.5800 ca         1 ZJ2      -0.039000
     20 C26         -6.6110   -65.2430   -14.7810 ca         1 ZJ2      -0.167500
     21 C27         -5.5040   -67.2820   -17.6750 cg         1 ZJ2       0.330000
     22 C28        -14.3100   -61.8300   -15.7500 c          1 ZJ2       0.556000
     23 C30         -9.0660   -67.8240   -22.2660 ch         1 ZJ2       0.270700
     24 N03        -10.5070   -63.5470   -15.5650 nb         1 ZJ2      -0.281000
     25 N05        -10.2430   -62.7640   -13.3370 nb         1 ZJ2      -0.244000
     26 N07        -13.5240   -61.7200   -14.6580 ns         1 ZJ2      -0.121000
     27 N08         -8.5790   -63.9910   -14.3300 nu         1 ZJ2      -0.928900
     28 N17        -12.4210   -63.1400   -16.7820 nh         1 ZJ2      -0.822100
     29 N31         -8.4860   -68.3000   -23.1450 n1         1 ZJ2      -0.443000
     30 N32         -4.8570   -67.9600   -18.3520 n1         1 ZJ2      -0.460000
     31 O29        -15.4210   -61.3190   -15.8220 o          1 ZJ2      -0.541000
     32 H1         -11.8180   -61.6680   -12.5460 h4         1 ZJ2       0.029100
     33 H2          -9.9950   -63.3300   -20.6540 ha         1 ZJ2       0.121000
     34 H3         -11.3320   -67.0230   -18.9260 ha         1 ZJ2       0.121000
     35 H4         -12.0110   -61.1630   -18.8940 hc         1 ZJ2       0.049700
     36 H5         -10.6130   -61.3310   -17.8410 hc         1 ZJ2       0.049700
     37 H6         -10.3960   -61.2780   -19.5970 hc         1 ZJ2       0.049700
     38 H7         -12.0880   -65.8610   -15.8400 hc         1 ZJ2       0.049700
     39 H8         -13.6350   -65.6480   -16.6480 hc         1 ZJ2       0.049700
     40 H9         -12.6440   -67.0680   -17.0060 hc         1 ZJ2       0.049700
     41 H10         -9.3940   -65.2910   -21.7220 ha         1 ZJ2       0.186000
     42 H11        -10.2390   -67.9850   -20.5040 ha         1 ZJ2       0.201000
     43 H12        -13.8500   -61.9880   -17.8050 h1         1 ZJ2       0.080200
     44 H13        -14.4800   -63.4610   -17.0820 h1         1 ZJ2       0.080200
     45 H14         -9.2980   -64.8640   -16.8260 ha         1 ZJ2       0.138000
     46 H15         -7.9250   -66.3050   -18.2490 ha         1 ZJ2       0.124000
     47 H16         -4.8660   -66.3860   -15.2330 ha         1 ZJ2       0.124000
     48 H17         -6.2440   -64.9430   -13.8070 ha         1 ZJ2       0.138000
     49 H18        -13.8940   -61.1870   -13.8800 hn         1 ZJ2       0.169000
     50 H19         -8.1360   -63.8190   -13.4390 hn         1 ZJ2       0.515000
     51 C15        -11.0360   -61.6470   -18.7970 c3         1 ZJ2      -0.047300
@<TRIPOS>BOND
     1     1     2 ar  
     2     1     4 ar  
     3     1    26 1   
     4     2    24 ar  
     5     2    28 1   
     6     3    24 ar  
     7     3    25 ar  
     8     3    27 1   
     9     4    25 ar  
    10     4    32 1   
    11     5     6 ar  
    12     5    10 ar  
    13     5    51 1   
    14     6     7 ar  
    15     6    33 1   
    16     7     8 ar  
    17     7    12 1   
    18     8     9 ar  
    19     8    34 1   
    20     9    10 ar  
    21     9    11 1   
    22    10    28 1   
    23    11    38 1   
    24    11    39 1   
    25    11    40 1   
    26    12    13 2   
    27    12    41 1   
    28    13    23 1   
    29    13    42 1   
    30    14    22 1   
    31    14    28 1   
    32    14    43 1   
    33    14    44 1   
    34    15    16 ar  
    35    15    20 ar  
    36    15    27 1   
    37    16    17 ar  
    38    16    45 1   
    39    17    18 ar  
    40    17    46 1   
    41    18    19 ar  
    42    18    21 1   
    43    19    20 ar  
    44    19    47 1   
    45    20    48 1   
    46    21    30 3   
    47    22    26 1   
    48    22    31 2   
    49    23    29 3   
    50    26    49 1   
    51    27    50 1   
    52    35    51 1   
    53    36    51 1   
    54    37    51 1   
@<TRIPOS>SUBSTRUCTURE
     1 ZJ2         1 TEMP              0 ****  ****    0 ROOT
