@<TRIPOS>MOLECULE
ZJ2
   51    54     1     0     0
SMALL
No Charge or Current Charge


@<TRIPOS>ATOM
      1 C01        -12.2860   -62.3670   -14.4680 ca         1 ZJ2      -0.237000
      2 C02        -11.7020   -63.0160   -15.5700 ca         1 ZJ2       0.408900
      3 C04         -9.8790   -63.5250   -14.2880 ca         1 ZJ2       0.400900
      4 C06        -11.5550   -62.3420   -13.2690 ca         1 ZJ2       0.137900
      5 C09        -11.0480   -63.1400   -18.8850 ca         1 ZJ2      -0.056300
      6 C10        -10.4750   -63.8680   -19.9460 ca         1 ZJ2      -0.093500
      7 C11        -10.6530   -65.2590   -20.0500 ca         1 ZJ2      -0.058800
      8 C12        -11.4270   -65.9230   -19.0800 ca         1 ZJ2      -0.093500
      9 C13        -12.0120   -65.2140   -18.0130 ca         1 ZJ2      -0.056300
     10 C14        -11.8250   -63.8120   -17.9100 ca         1 ZJ2       0.282000
     11 C16        -12.8280   -65.9810   -16.9730 c3         1 ZJ2      -0.047300
     12 C18        -10.0160   -65.9930   -21.1830 ce         1 ZJ2      -0.104200
     13 C19         -9.9440   -67.3370   -21.4090 cf         1 ZJ2      -0.106700
     14 C20        -13.7370   -62.4620   -16.9670 c6         1 ZJ2       0.158800
     15 C21         -7.8210   -64.8640   -15.0320 ca         1 ZJ2       0.347000
     16 C22         -8.3670   -65.7110   -16.0160 ca         1 ZJ2      -0.167500
     17 C23         -7.5300   -66.4630   -16.8590 ca         1 ZJ2      -0.039000
     18 C24         -6.1330   -66.3830   -16.7170 ca         1 ZJ2      -0.063000
     19 C25         -5.5820   -65.5540   -15.7220 ca         1 ZJ2      -0.039000
     20 C26         -6.4260   -64.8030   -14.8830 ca         1 ZJ2      -0.167500
     21 C27         -5.2740   -67.1500   -17.5770 cg         1 ZJ2       0.330000
     22 C28        -14.3540   -61.7490   -15.7230 c          1 ZJ2       0.556000
     23 C30         -9.2950   -67.9200   -22.5380 ch         1 ZJ2       0.270700
     24 N03        -10.4910   -63.5860   -15.4790 nb         1 ZJ2      -0.281000
     25 N05        -10.3420   -62.9230   -13.1780 nb         1 ZJ2      -0.244000
     26 N07        -13.5650   -61.7710   -14.5880 ns         1 ZJ2      -0.121000
     27 N08         -8.6190   -64.0970   -14.1760 nu         1 ZJ2      -0.928900
     28 N17        -12.3720   -63.0980   -16.8130 nh         1 ZJ2      -0.822100
     29 N31         -8.7560   -68.3580   -23.4760 n1         1 ZJ2      -0.443000
     30 N32         -4.5840   -67.7790   -18.2780 n1         1 ZJ2      -0.460000
     31 O29        -15.4560   -61.2080   -15.7440 o          1 ZJ2      -0.541000
     32 H1         -11.9400   -61.8560   -12.3730 h4         1 ZJ2       0.029100
     33 H2          -9.8760   -63.3470   -20.6890 ha         1 ZJ2       0.121000
     34 H3         -11.5790   -66.9960   -19.1450 ha         1 ZJ2       0.121000
     35 H4         -11.7190   -61.0720   -18.9820 hc         1 ZJ2       0.049700
     36 H5         -10.4200   -61.3520   -17.8090 hc         1 ZJ2       0.049700
     37 H6         -10.0560   -61.3010   -19.5340 hc         1 ZJ2       0.049700
     38 H7         -12.3720   -65.9040   -15.9790 hc         1 ZJ2       0.049700
     39 H8         -13.8490   -65.5890   -16.9040 hc         1 ZJ2       0.049700
     40 H9         -12.9040   -67.0470   -17.2160 hc         1 ZJ2       0.049700
     41 H10         -9.5400   -65.3410   -21.9190 ha         1 ZJ2       0.186000
     42 H11        -10.3900   -68.0390   -20.7070 ha         1 ZJ2       0.201000
     43 H12        -13.7090   -61.6980   -17.7560 h1         1 ZJ2       0.080200
     44 H13        -14.4730   -63.2220   -17.2620 h1         1 ZJ2       0.080200
     45 H14         -9.4410   -65.8090   -16.1280 ha         1 ZJ2       0.138000
     46 H15         -7.9700   -67.1090   -17.6170 ha         1 ZJ2       0.124000
     47 H16         -4.5020   -65.4880   -15.5980 ha         1 ZJ2       0.124000
     48 H17         -5.9880   -64.1630   -14.1230 ha         1 ZJ2       0.138000
     49 H18        -13.9410   -61.3160   -13.7660 hn         1 ZJ2       0.169000
     50 H19         -8.1450   -63.8130   -13.3200 hn         1 ZJ2       0.515000
     51 C15        -10.7970   -61.6350   -18.7990 c3         1 ZJ2      -0.047300
@<TRIPOS>BOND
     1     1     2 ar  
     2     1     4 ar  
     3     1    26 1   
     4     2    24 ar  
     5     2    28 1   
     6     3    24 ar  
     7     3    25 ar  
     8     3    27 1   
     9     4    25 ar  
    10     4    32 1   
    11     5     6 ar  
    12     5    10 ar  
    13     5    51 1   
    14     6     7 ar  
    15     6    33 1   
    16     7     8 ar  
    17     7    12 1   
    18     8     9 ar  
    19     8    34 1   
    20     9    10 ar  
    21     9    11 1   
    22    10    28 1   
    23    11    38 1   
    24    11    39 1   
    25    11    40 1   
    26    12    13 2   
    27    12    41 1   
    28    13    23 1   
    29    13    42 1   
    30    14    22 1   
    31    14    28 1   
    32    14    43 1   
    33    14    44 1   
    34    15    16 ar  
    35    15    20 ar  
    36    15    27 1   
    37    16    17 ar  
    38    16    45 1   
    39    17    18 ar  
    40    17    46 1   
    41    18    19 ar  
    42    18    21 1   
    43    19    20 ar  
    44    19    47 1   
    45    20    48 1   
    46    21    30 3   
    47    22    26 1   
    48    22    31 2   
    49    23    29 3   
    50    26    49 1   
    51    27    50 1   
    52    35    51 1   
    53    36    51 1   
    54    37    51 1   
@<TRIPOS>SUBSTRUCTURE
     1 ZJ2         1 TEMP              0 ****  ****    0 ROOT
