@<TRIPOS>MOLECULE
ZJ3
   75    80     1     0     0
SMALL
No Charge or Current Charge


@<TRIPOS>ATOM
      1 C02        -26.2990    -3.6980    30.2360 c5         1 ZJ3       0.086300
      2 C03        -26.8320    -2.9750    31.5210 c5         1 ZJ3       0.283300
      3 C05        -26.5200    -1.2930    29.9370 c5         1 ZJ3       0.151300
      4 C06        -25.6090    -2.5040    29.5180 c5         1 ZJ3       0.152300
      5 C08        -27.3450    -0.6180    28.8010 c3         1 ZJ3       0.227600
      6 C14        -33.4510    -0.9300    28.8990 c3         1 ZJ3       0.227600
      7 C15        -32.8910    -1.0520    30.3540 c5         1 ZJ3       0.148300
      8 C17        -31.3700    -2.1580    31.7220 c5         1 ZJ3       0.339300
      9 C18        -30.7290    -0.7470    31.4880 c5         1 ZJ3       0.102300
     10 C19        -31.9100     0.0720    30.8660 c5         1 ZJ3       0.137300
     11 C23        -32.7490    -3.3310    33.2760 ca         1 ZJ3       0.215100
     12 C24        -33.4570    -3.3550    34.4850 ca         1 ZJ3      -0.184000
     13 C25        -34.0290    -4.5420    34.9720 ca         1 ZJ3      -0.047000
     14 C26        -33.9090    -5.7500    34.2500 ca         1 ZJ3      -0.204800
     15 C27        -34.5010    -7.0070    34.7570 cc         1 ZJ3      -0.061400
     16 C28        -35.2610    -7.1190    36.0780 c3         1 ZJ3       0.343200
     17 C32        -34.3010    -8.0920    33.9160 cd         1 ZJ3      -0.290200
     18 C33        -33.5750    -8.0540    32.6350 c          1 ZJ3       0.686300
     19 C36        -33.2070    -5.7170    33.0250 ca         1 ZJ3       0.228100
     20 C37        -32.6340    -4.5330    32.5400 ca         1 ZJ3      -0.176000
     21 C43        -28.2080    -3.3370    33.6060 ca         1 ZJ3       0.112500
     22 C45        -28.3850    -2.3610    35.6700 ca         1 ZJ3       0.148900
     23 C47        -29.6950    -4.1960    35.2650 ca         1 ZJ3       0.432900
     24 C49        -29.1520    -4.2680    33.9630 ca         1 ZJ3      -0.078600
     25 C51        -28.6240    -4.7500    31.9290 cc         1 ZJ3       0.485700
     26 F29        -36.3590    -6.3280    36.0930 f          1 ZJ3      -0.118667
     27 F30        -34.4890    -6.7630    37.1310 f          1 ZJ3      -0.118667
     28 F31        -35.6900    -8.3790    36.3250 f          1 ZJ3      -0.118667
     29 N42        -27.8510    -3.6490    32.3250 na         1 ZJ3      -0.278300
     30 N44        -27.8030    -2.3600    34.4460 nb         1 ZJ3      -0.208000
     31 N46        -29.3140    -3.2370    36.1250 nb         1 ZJ3      -0.325000
     32 N48        -30.6210    -5.0770    35.7280 nv         1 ZJ3      -1.075900
     33 N50        -29.4300    -5.1680    32.9280 nd         1 ZJ3      -0.596100
     34 O01        -25.3430    -4.7580    30.4980 oh         1 ZJ3      -0.730000
     35 O04        -27.3760    -1.7460    31.0160 os         1 ZJ3      -0.438000
     36 O07        -24.2720    -2.3990    30.0250 oh         1 ZJ3      -0.739000
     37 O09        -27.9360    -1.5590    27.8740 os         1 ZJ3      -0.602400
     38 O11        -30.1900    -0.8780    28.2690 os         1 ZJ3      -0.730800
     39 O13        -32.5470    -1.4130    27.8780 os         1 ZJ3      -0.575400
     40 O16        -32.2050    -2.3090    30.5590 os         1 ZJ3      -0.412000
     41 O20        -32.4750     0.8730    31.9060 oh         1 ZJ3      -0.711000
     42 O21        -30.1630    -0.1050    32.6600 oh         1 ZJ3      -0.726000
     43 O22        -32.2240    -2.0980    32.9010 os         1 ZJ3      -0.362100
     44 O34        -33.0650    -6.8470    32.2710 os         1 ZJ3      -0.278200
     45 O35        -33.4350    -9.0480    31.9370 o          1 ZJ3      -0.496000
     46 O38        -31.6870     0.9520    27.4450 o          1 ZJ3      -0.841500
     47 O39        -31.0750    -0.7740    25.8480 o          1 ZJ3      -0.841500
     48 O40        -29.4140    -3.0360    29.3730 o          1 ZJ3      -0.847000
     49 O41        -29.7520    -3.0820    26.9540 o          1 ZJ3      -0.847000
     50 P10        -29.3860    -2.2300    28.1210 p5         1 ZJ3       1.460800
     51 P12        -31.3570    -0.4950    27.2880 p5         1 ZJ3       1.467800
     52 H021       -27.1310    -4.0590    29.6150 h1         1 ZJ3       0.109700
     53 H031       -25.9960    -2.7530    32.1980 h2         1 ZJ3       0.083700
     54 H051       -25.8840    -0.5020    30.3570 h1         1 ZJ3       0.053700
     55 H061       -25.6020    -2.6490    28.4270 h1         1 ZJ3       0.088700
     56 H081       -28.1040     0.0300    29.2580 h1         1 ZJ3       0.039200
     57 H082       -26.6650     0.0420    28.2470 h1         1 ZJ3       0.039200
     58 H141       -33.7420     0.1120    28.7140 h1         1 ZJ3       0.015200
     59 H142       -34.3760    -1.5190    28.8540 h1         1 ZJ3       0.015200
     60 H151       -33.7720    -1.0560    31.0110 h1         1 ZJ3       0.084700
     61 H171       -30.6070    -2.9420    31.8010 h2         1 ZJ3       0.137700
     62 H181       -29.9400    -0.8540    30.7350 h1         1 ZJ3       0.076700
     63 H191       -31.5490     0.7110    30.0500 h1         1 ZJ3       0.043700
     64 H241       -33.5600    -2.4390    35.0590 ha         1 ZJ3       0.117000
     65 H251       -34.5630    -4.5000    35.9170 ha         1 ZJ3       0.101000
     66 H321       -34.6790    -9.0790    34.1530 ha         1 ZJ3       0.207000
     67 H371       -32.1120    -4.5890    31.5920 ha         1 ZJ3       0.225000
     68 H451       -28.0690    -1.5780    36.3600 h5         1 ZJ3       0.024100
     69 H511       -28.5610    -5.1910    30.9400 h5         1 ZJ3       0.121800
     70 H481       -31.1710    -4.7900    36.5320 hn         1 ZJ3       0.496500
     71 H482       -31.1020    -5.6380    35.0310 hn         1 ZJ3       0.496500
     72 H011       -25.8420    -5.5850    30.7120 ho         1 ZJ3       0.518000
     73 H071       -24.1050    -3.3260    30.3390 ho         1 ZJ3       0.508000
     74 H201       -31.7810     0.7770    32.6120 ho         1 ZJ3       0.505000
     75 H211       -29.2880    -0.5330    32.8270 ho         1 ZJ3       0.513000
@<TRIPOS>BOND
     1     1     2 1   
     2     1     4 1   
     3     1    34 1   
     4     1    52 1   
     5     2    29 1   
     6     2    35 1   
     7     2    53 1   
     8     3     4 1   
     9     3     5 1   
    10     3    35 1   
    11     3    54 1   
    12     4    36 1   
    13     4    55 1   
    14     5    37 1   
    15     5    56 1   
    16     5    57 1   
    17     6     7 1   
    18     6    39 1   
    19     6    58 1   
    20     6    59 1   
    21     7    10 1   
    22     7    40 1   
    23     7    60 1   
    24     8     9 1   
    25     8    40 1   
    26     8    43 1   
    27     8    61 1   
    28     9    10 1   
    29     9    42 1   
    30     9    62 1   
    31    10    41 1   
    32    10    63 1   
    33    11    12 ar  
    34    11    20 ar  
    35    11    43 1   
    36    12    13 ar  
    37    12    64 1   
    38    13    14 ar  
    39    13    65 1   
    40    14    15 1   
    41    14    19 ar  
    42    15    16 1   
    43    15    17 2   
    44    16    26 1   
    45    16    27 1   
    46    16    28 1   
    47    17    18 1   
    48    17    66 1   
    49    18    44 1   
    50    18    45 2   
    51    19    20 ar  
    52    19    44 1   
    53    20    67 1   
    54    21    24 ar  
    55    21    29 1   
    56    21    30 ar  
    57    22    30 ar  
    58    22    31 ar  
    59    22    68 1   
    60    23    24 ar  
    61    23    31 ar  
    62    23    32 1   
    63    24    33 1   
    64    25    29 1   
    65    25    33 2   
    66    25    69 1   
    67    32    70 1   
    68    32    71 1   
    69    34    72 1   
    70    36    73 1   
    71    37    50 1   
    72    38    50 1   
    73    38    51 1   
    74    39    51 1   
    75    41    74 1   
    76    42    75 1   
    77    46    51 1   
    78    47    51 1   
    79    48    50 1   
    80    49    50 1   
@<TRIPOS>SUBSTRUCTURE
     1 ZJ3         1 TEMP              0 ****  ****    0 ROOT
