@<TRIPOS>MOLECULE
ZJ3
   75    80     1     0     0
SMALL
abcg2


@<TRIPOS>ATOM
      1 C02        -26.5130    -4.7080    30.6270 c5         1 ZJ3       0.086300
      2 C03        -26.4140    -3.9910    31.9760 c5         1 ZJ3       0.283300
      3 C05        -26.1120    -2.3810    30.3330 c5         1 ZJ3       0.151300
      4 C06        -25.7270    -3.7430    29.7430 c5         1 ZJ3       0.152300
      5 C08        -27.1910    -1.6450    29.5690 c3         1 ZJ3       0.227600
      6 C14        -32.9270     0.1740    28.0010 c3         1 ZJ3       0.227600
      7 C15        -33.9450    -0.3610    28.9950 c5         1 ZJ3       0.148300
      8 C17        -33.2110    -0.6920    31.1880 c5         1 ZJ3       0.339300
      9 C18        -33.5900     0.7880    31.0200 c5         1 ZJ3       0.102300
     10 C19        -34.5570     0.7480    29.8360 c5         1 ZJ3       0.137300
     11 C23        -33.8190    -2.5000    32.6030 ca         1 ZJ3       0.215100
     12 C24        -34.5010    -2.8500    33.7790 ca         1 ZJ3      -0.184000
     13 C25        -34.2580    -4.0500    34.3970 ca         1 ZJ3      -0.047000
     14 C26        -33.3310    -4.9660    33.8700 ca         1 ZJ3      -0.204800
     15 C27        -32.9720    -6.2450    34.4320 cc         1 ZJ3      -0.061400
     16 C28        -33.5980    -6.6970    35.7240 c3         1 ZJ3       0.343200
     17 C32        -32.0730    -7.0340    33.8190 cd         1 ZJ3      -0.290200
     18 C33        -31.4670    -6.6420    32.5590 c          1 ZJ3       0.686300
     19 C36        -32.6940    -4.6030    32.6810 ca         1 ZJ3       0.228100
     20 C37        -32.9120    -3.3900    32.0450 ca         1 ZJ3      -0.176000
     21 C43        -27.1790    -4.7700    34.2210 ca         1 ZJ3       0.112500
     22 C45        -26.1560    -5.3400    36.0780 ca         1 ZJ3       0.148900
     23 C47        -28.4540    -5.4400    36.1050 ca         1 ZJ3       0.432900
     24 C49        -28.4300    -4.9960    34.7710 ca         1 ZJ3      -0.078600
     25 C51        -28.7800    -4.3620    32.7850 cc         1 ZJ3       0.485700
     26 F29        -34.9250    -6.7940    35.6020 f          1 ZJ3      -0.118667
     27 F30        -33.3470    -5.8270    36.7080 f          1 ZJ3      -0.118667
     28 F31        -33.1500    -7.8830    36.1260 f          1 ZJ3      -0.118667
     29 N42        -27.4170    -4.3680    32.9360 na         1 ZJ3      -0.278300
     30 N44        -26.0070    -4.9240    34.8330 nb         1 ZJ3      -0.208000
     31 N46        -27.2840    -5.6030    36.7330 nb         1 ZJ3      -0.325000
     32 N48        -29.5860    -5.7160    36.7550 nv         1 ZJ3      -1.075900
     33 N50        -29.4170    -4.7320    33.8560 nd         1 ZJ3      -0.596100
     34 O01        -25.9510    -5.9850    30.6200 oh         1 ZJ3      -0.730000
     35 O04        -26.5370    -2.6290    31.6780 os         1 ZJ3      -0.438000
     36 O07        -24.3390    -3.9090    29.9040 oh         1 ZJ3      -0.739000
     37 O09        -28.2920    -2.4860    29.3160 os         1 ZJ3      -0.602400
     38 O11        -30.0820    -0.8280    28.6590 os         1 ZJ3      -0.730800
     39 O13        -32.2720    -0.9020    27.3700 os         1 ZJ3      -0.575400
     40 O16        -33.3100    -1.2440    29.9200 os         1 ZJ3      -0.412000
     41 O20        -35.8510     0.3670    30.2210 oh         1 ZJ3      -0.711000
     42 O21        -34.1830     1.4020    32.1200 oh         1 ZJ3      -0.726000
     43 O22        -34.1140    -1.2950    32.0940 os         1 ZJ3      -0.362100
     44 O34        -31.8330    -5.4410    32.0610 os         1 ZJ3      -0.278200
     45 O35        -30.6950    -7.3090    31.9230 o          1 ZJ3      -0.496000
     46 O38        -30.2960     0.5320    26.5790 o          1 ZJ3      -0.841500
     47 O39        -30.2890    -2.0770    26.3900 o          1 ZJ3      -0.841500
     48 O40        -29.8320    -1.4200    31.0760 o          1 ZJ3      -0.847000
     49 O41        -30.6420    -3.2690    29.4110 o          1 ZJ3      -0.847000
     50 P10        -29.8250    -2.0540    29.7170 p5         1 ZJ3       1.460800
     51 P12        -30.6490    -0.8210    27.1100 p5         1 ZJ3       1.467800
     52 H021       -27.5550    -4.7170    30.2910 h1         1 ZJ3       0.109700
     53 H031       -25.4510    -4.2220    32.4430 h2         1 ZJ3       0.083700
     54 H051       -25.2280    -1.7340    30.3500 h1         1 ZJ3       0.053700
     55 H061       -26.0200    -3.8300    28.6900 h1         1 ZJ3       0.088700
     56 H081       -27.4720    -0.7490    30.1300 h1         1 ZJ3       0.039200
     57 H082       -26.7610    -1.3080    28.6190 h1         1 ZJ3       0.039200
     58 H141       -32.2260     0.8450    28.5090 h1         1 ZJ3       0.015200
     59 H142       -33.4590     0.7810    27.2600 h1         1 ZJ3       0.015200
     60 H151       -34.7170    -0.9220    28.4590 h1         1 ZJ3       0.084700
     61 H171       -32.1900    -0.8360    31.5570 h2         1 ZJ3       0.137700
     62 H181       -32.6800     1.3140    30.7030 h1         1 ZJ3       0.076700
     63 H191       -34.5610     1.7050    29.2970 h1         1 ZJ3       0.043700
     64 H241       -35.2140    -2.1570    34.2040 ha         1 ZJ3       0.117000
     65 H251       -34.8000    -4.2620    35.3070 ha         1 ZJ3       0.101000
     66 H321       -31.7690    -7.9930    34.2120 ha         1 ZJ3       0.207000
     67 H371       -32.3790    -3.1900    31.1240 ha         1 ZJ3       0.225000
     68 H451       -25.2430    -5.4890    36.6450 h5         1 ZJ3       0.024100
     69 H511       -29.2520    -4.0820    31.8560 h5         1 ZJ3       0.121800
     70 H481       -29.5600    -5.9600    37.7300 hn         1 ZJ3       0.496500
     71 H482       -30.4790    -5.5160    36.3410 hn         1 ZJ3       0.496500
     72 H011       -26.5790    -6.6070    30.9980 ho         1 ZJ3       0.518000
     73 H071       -24.1080    -4.8090    29.6500 ho         1 ZJ3       0.508000
     74 H201       -36.1440     0.9550    30.9250 ho         1 ZJ3       0.505000
     75 H211       -33.5190     1.5550    32.8000 ho         1 ZJ3       0.513000
@<TRIPOS>BOND
     1     1     2 1   
     2     1     4 1   
     3     1    34 1   
     4     1    52 1   
     5     2    29 1   
     6     2    35 1   
     7     2    53 1   
     8     3     4 1   
     9     3     5 1   
    10     3    35 1   
    11     3    54 1   
    12     4    36 1   
    13     4    55 1   
    14     5    37 1   
    15     5    56 1   
    16     5    57 1   
    17     6     7 1   
    18     6    39 1   
    19     6    58 1   
    20     6    59 1   
    21     7    10 1   
    22     7    40 1   
    23     7    60 1   
    24     8     9 1   
    25     8    40 1   
    26     8    43 1   
    27     8    61 1   
    28     9    10 1   
    29     9    42 1   
    30     9    62 1   
    31    10    41 1   
    32    10    63 1   
    33    11    12 ar  
    34    11    20 ar  
    35    11    43 1   
    36    12    13 ar  
    37    12    64 1   
    38    13    14 ar  
    39    13    65 1   
    40    14    15 1   
    41    14    19 ar  
    42    15    16 1   
    43    15    17 2   
    44    16    26 1   
    45    16    27 1   
    46    16    28 1   
    47    17    18 1   
    48    17    66 1   
    49    18    44 1   
    50    18    45 2   
    51    19    20 ar  
    52    19    44 1   
    53    20    67 1   
    54    21    24 ar  
    55    21    29 1   
    56    21    30 ar  
    57    22    30 ar  
    58    22    31 ar  
    59    22    68 1   
    60    23    24 ar  
    61    23    31 ar  
    62    23    32 1   
    63    24    33 1   
    64    25    29 1   
    65    25    33 2   
    66    25    69 1   
    67    32    70 1   
    68    32    71 1   
    69    34    72 1   
    70    36    73 1   
    71    37    50 1   
    72    38    50 1   
    73    38    51 1   
    74    39    51 1   
    75    41    74 1   
    76    42    75 1   
    77    46    51 1   
    78    47    51 1   
    79    48    50 1   
    80    49    50 1   
@<TRIPOS>SUBSTRUCTURE
     1 ZJ3         1 TEMP              0 ****  ****    0 ROOT
