@<TRIPOS>MOLECULE
ZJ4
   27    28     1     0     0
SMALL
No Charge or Current Charge


@<TRIPOS>ATOM
      1 C10         -5.8140    24.8520     3.8160 c          1 ZJ4       0.733600
      2 C15         -8.6410    19.7870     2.1350 c3         1 ZJ4      -0.044300
      3 C01         -6.0800    17.1950     0.9570 ca         1 ZJ4      -0.122000
      4 C02         -4.8980    17.9480     0.9210 ca         1 ZJ4      -0.128000
      5 C03         -4.9100    19.3120     1.2710 ca         1 ZJ4      -0.058300
      6 C04         -3.6090    20.1080     1.2140 c3         1 ZJ4      -0.044300
      7 C05         -6.1250    19.9250     1.6650 ca         1 ZJ4       0.024000
      8 C06         -6.1470    21.3390     2.0360 cc         1 ZJ4      -0.256000
      9 C07         -6.6160    22.2920     1.1700 cd         1 ZJ4      -0.127000
     10 C08         -6.5420    23.6020     1.7180 cd         1 ZJ4      -0.171000
     11 C09         -6.0130    23.6330     2.9940 cc         1 ZJ4      -0.209600
     12 O11         -5.3330    24.7330     4.9330 o          1 ZJ4      -0.709500
     13 O12         -6.1360    25.9360     3.3500 o          1 ZJ4      -0.709500
     14 S13         -5.5860    22.0190     3.5580 ss         1 ZJ4       0.214000
     15 C14         -7.3180    19.1600     1.7040 ca         1 ZJ4      -0.058300
     16 C16         -7.2850    17.7980     1.3460 ca         1 ZJ4      -0.128000
     17 H1          -8.5410    20.2990     3.0990 hc         1 ZJ4       0.043033
     18 H2          -8.9850    20.5230     1.3980 hc         1 ZJ4       0.043033
     19 H3          -9.4320    19.0360     2.2440 hc         1 ZJ4       0.043033
     20 H4          -6.0630    16.1420     0.6840 ha         1 ZJ4       0.096000
     21 H5          -3.9700    17.4690     0.6180 ha         1 ZJ4       0.098000
     22 H6          -3.7360    21.0360     0.6440 hc         1 ZJ4       0.043033
     23 H7          -3.2680    20.3750     2.2210 hc         1 ZJ4       0.043033
     24 H8          -2.8040    19.5390     0.7340 hc         1 ZJ4       0.043033
     25 H9          -7.0010    22.0720     0.1790 ha         1 ZJ4       0.104000
     26 H10         -6.8680    24.4890     1.1830 ha         1 ZJ4       0.135000
     27 H12         -8.1950    17.2040     1.3720 ha         1 ZJ4       0.098000
@<TRIPOS>BOND
     1     1    11 1   
     2     1    12 1   
     3     1    13 1   
     4     2    15 1   
     5     2    17 1   
     6     2    18 1   
     7     2    19 1   
     8     3     4 ar  
     9     3    16 ar  
    10     3    20 1   
    11     4     5 ar  
    12     4    21 1   
    13     5     6 1   
    14     5     7 ar  
    15     6    22 1   
    16     6    23 1   
    17     6    24 1   
    18     7     8 1   
    19     7    15 ar  
    20     8     9 2   
    21     8    14 1   
    22     9    10 1   
    23     9    25 1   
    24    10    11 2   
    25    10    26 1   
    26    11    14 1   
    27    15    16 ar  
    28    16    27 1   
@<TRIPOS>SUBSTRUCTURE
     1 ZJ4         1 TEMP              0 ****  ****    0 ROOT
