@<TRIPOS>MOLECULE
ZJ4
   27    28     1     0     0
SMALL
abcg2


@<TRIPOS>ATOM
      1 C10         -5.8880    24.7310     3.9490 c          1 ZJ4       0.733600
      2 C15         -8.6000    19.8000     2.1560 c3         1 ZJ4      -0.044300
      3 C01         -6.0680    17.1940     1.0840 ca         1 ZJ4      -0.122000
      4 C02         -4.9120    17.9510     0.9690 ca         1 ZJ4      -0.128000
      5 C03         -4.9280    19.3180     1.2330 ca         1 ZJ4      -0.058300
      6 C04         -3.6690    20.1260     1.1070 c3         1 ZJ4      -0.044300
      7 C05         -6.1360    19.9190     1.6130 ca         1 ZJ4       0.024000
      8 C06         -6.1780    21.3690     1.8860 cc         1 ZJ4      -0.256000
      9 C07         -6.5160    22.3810     1.0340 cd         1 ZJ4      -0.127000
     10 C08         -6.4560    23.6620     1.6440 cd         1 ZJ4      -0.171000
     11 C09         -6.0740    23.6170     2.9520 cc         1 ZJ4      -0.209600
     12 O11         -5.5150    24.3700     5.0820 o          1 ZJ4      -0.709500
     13 O12         -6.1230    25.8820     3.5410 o          1 ZJ4      -0.709500
     14 S13         -5.7850    21.9940     3.4440 ss         1 ZJ4       0.214000
     15 C14         -7.3080    19.1610     1.7360 ca         1 ZJ4      -0.058300
     16 C16         -7.2560    17.7960     1.4660 ca         1 ZJ4      -0.128000
     17 H1          -8.5030    20.3050     3.1180 hc         1 ZJ4       0.043033
     18 H2          -8.9280    20.5530     1.4380 hc         1 ZJ4       0.043033
     19 H3          -9.3920    19.0580     2.2460 hc         1 ZJ4       0.043033
     20 H4          -6.0420    16.1320     0.8760 ha         1 ZJ4       0.096000
     21 H5          -3.9850    17.4780     0.6710 ha         1 ZJ4       0.098000
     22 H6          -3.7910    20.9500     0.4030 hc         1 ZJ4       0.043033
     23 H7          -3.3800    20.5690     2.0620 hc         1 ZJ4       0.043033
     24 H8          -2.8410    19.5080     0.7630 hc         1 ZJ4       0.043033
     25 H9          -6.7980    22.2110     0.0040 ha         1 ZJ4       0.104000
     26 H10         -6.6880    24.5850     1.1300 ha         1 ZJ4       0.135000
     27 H12         -8.1570    17.2020     1.5570 ha         1 ZJ4       0.098000
@<TRIPOS>BOND
     1     1    11 1   
     2     1    12 1   
     3     1    13 1   
     4     2    15 1   
     5     2    17 1   
     6     2    18 1   
     7     2    19 1   
     8     3     4 ar  
     9     3    16 ar  
    10     3    20 1   
    11     4     5 ar  
    12     4    21 1   
    13     5     6 1   
    14     5     7 ar  
    15     6    22 1   
    16     6    23 1   
    17     6    24 1   
    18     7     8 1   
    19     7    15 ar  
    20     8     9 2   
    21     8    14 1   
    22     9    10 1   
    23     9    25 1   
    24    10    11 2   
    25    10    26 1   
    26    11    14 1   
    27    15    16 ar  
    28    16    27 1   
@<TRIPOS>SUBSTRUCTURE
     1 ZJ4         1 TEMP              0 ****  ****    0 ROOT
