@<TRIPOS>MOLECULE
ZJ7
   30    31     1     0     0
SMALL
abcg2


@<TRIPOS>ATOM
      1 C10         -4.9720    20.3500   -33.8490 ca         1 ZJ7      -0.124000
      2 C13         -4.0860    24.7790   -35.2240 cc         1 ZJ7      -0.126000
      3 C15         -1.8690    25.2520   -35.7350 cd         1 ZJ7      -0.208600
      4 C17         -0.6030    25.8770   -36.2600 c          1 ZJ7       0.733600
      5 S01         -1.7710    23.7870   -34.8360 ss         1 ZJ7       0.212000
      6 O02          0.4460    25.2610   -35.9870 o          1 ZJ7      -0.709000
      7 O03         -0.7360    26.9300   -36.9060 o          1 ZJ7      -0.709000
      8 C04         -4.1090    22.5960   -33.8930 ca         1 ZJ7       0.023000
      9 C05         -4.4540    22.7510   -32.5440 ca         1 ZJ7      -0.057300
     10 C06         -4.3670    21.3870   -34.5520 ca         1 ZJ7      -0.057300
     11 C07         -3.4810    23.7110   -34.6250 cd         1 ZJ7      -0.255000
     12 C08         -5.3210    20.4810   -32.5100 ca         1 ZJ7      -0.091300
     13 C09         -5.0560    21.6900   -31.8750 ca         1 ZJ7      -0.124000
     14 C11         -4.1850    24.0400   -31.8220 c3         1 ZJ7      -0.044300
     15 C12         -4.0030    21.2030   -35.9970 c3         1 ZJ7      -0.044300
     16 C14         -5.9430    19.3400   -31.7590 c3         1 ZJ7      -0.036800
     17 C16         -3.1660    25.6560   -35.8570 cc         1 ZJ7      -0.171000
     18 H1          -5.1790    19.4180   -34.3630 ha         1 ZJ7       0.097500
     19 H2          -5.1570    24.9270   -35.2140 ha         1 ZJ7       0.104000
     20 H4          -5.3240    21.8120   -30.8310 ha         1 ZJ7       0.097500
     21 H5          -4.7810    24.8590   -32.2280 hc         1 ZJ7       0.043200
     22 H6          -4.4210    23.9510   -30.7630 hc         1 ZJ7       0.043200
     23 H7          -3.1390    24.3390   -31.9100 hc         1 ZJ7       0.043200
     24 H8          -2.9220    21.2320   -36.1440 hc         1 ZJ7       0.043200
     25 H9          -4.3630    20.2460   -36.3730 hc         1 ZJ7       0.043200
     26 H10         -4.4250    21.9920   -36.6210 hc         1 ZJ7       0.043200
     27 H11         -5.1840    18.7630   -31.2260 hc         1 ZJ7       0.031367
     28 H12         -6.6590    19.6920   -31.0170 hc         1 ZJ7       0.031367
     29 H13         -6.4600    18.6540   -32.4290 hc         1 ZJ7       0.031367
     30 H14         -3.4550    26.5530   -36.3860 ha         1 ZJ7       0.135000
@<TRIPOS>BOND
     1     1    10 ar  
     2     1    12 ar  
     3     1    18 1   
     4     2    11 2   
     5     2    17 1   
     6     2    19 1   
     7     3     4 1   
     8     3     5 1   
     9     3    17 2   
    10     4     6 1   
    11     4     7 1   
    12     5    11 1   
    13     8     9 ar  
    14     8    10 ar  
    15     8    11 1   
    16     9    13 ar  
    17     9    14 1   
    18    10    15 1   
    19    12    13 ar  
    20    12    16 1   
    21    13    20 1   
    22    14    21 1   
    23    14    22 1   
    24    14    23 1   
    25    15    24 1   
    26    15    25 1   
    27    15    26 1   
    28    16    27 1   
    29    16    28 1   
    30    16    29 1   
    31    17    30 1   
@<TRIPOS>SUBSTRUCTURE
     1 ZJ7         1 TEMP              0 ****  ****    0 ROOT
