@<TRIPOS>MOLECULE
ZJ7
   30    31     1     0     0
SMALL
No Charge or Current Charge


@<TRIPOS>ATOM
      1 C10         -4.8220    20.2420   -33.8050 ca         1 ZJ7      -0.124000
      2 C13         -3.8420    25.0260   -34.7500 cc         1 ZJ7      -0.126000
      3 C15         -1.8140    25.2160   -35.8910 cd         1 ZJ7      -0.208600
      4 C17         -0.6970    25.8440   -36.6450 c          1 ZJ7       0.733600
      5 S01         -1.8850    23.4910   -35.5000 ss         1 ZJ7       0.212000
      6 O02          0.2270    25.1350   -37.0150 o          1 ZJ7      -0.709000
      7 O03         -0.7410    27.0460   -36.8670 o          1 ZJ7      -0.709000
      8 C04         -4.1290    22.5930   -33.9770 ca         1 ZJ7       0.023000
      9 C05         -4.6510    22.8070   -32.6650 ca         1 ZJ7      -0.057300
     10 C06         -4.2260    21.2850   -34.5390 ca         1 ZJ7      -0.057300
     11 C07         -3.4950    23.6940   -34.7550 cd         1 ZJ7      -0.255000
     12 C08         -5.3400    20.4630   -32.5230 ca         1 ZJ7      -0.091300
     13 C09         -5.2500    21.7430   -31.9630 ca         1 ZJ7      -0.124000
     14 C11         -4.5190    24.1350   -31.9180 c3         1 ZJ7      -0.044300
     15 C12         -3.7780    20.9610   -35.9640 c3         1 ZJ7      -0.044300
     16 C14         -5.9830    19.3250   -31.7450 c3         1 ZJ7      -0.036800
     17 C16         -2.9210    25.8730   -35.4100 cc         1 ZJ7      -0.171000
     18 H1          -4.8970    19.2490   -34.2430 ha         1 ZJ7       0.097500
     19 H2          -4.7540    25.4190   -34.3130 ha         1 ZJ7       0.104000
     20 H4          -5.6380    21.9100   -30.9600 ha         1 ZJ7       0.097500
     21 H5          -5.3260    24.8250   -32.1890 hc         1 ZJ7       0.043200
     22 H6          -4.5730    23.9900   -30.8320 hc         1 ZJ7       0.043200
     23 H7          -3.5580    24.6210   -32.1160 hc         1 ZJ7       0.043200
     24 H8          -2.7050    20.7410   -36.0020 hc         1 ZJ7       0.043200
     25 H9          -4.3010    20.0830   -36.3600 hc         1 ZJ7       0.043200
     26 H10         -3.9890    21.7860   -36.6550 hc         1 ZJ7       0.043200
     27 H11         -5.2360    18.7950   -31.1420 hc         1 ZJ7       0.031367
     28 H12         -6.7620    19.6940   -31.0660 hc         1 ZJ7       0.031367
     29 H13         -6.4510    18.5950   -32.4160 hc         1 ZJ7       0.031367
     30 H14         -3.0890    26.9420   -35.5120 ha         1 ZJ7       0.135000
@<TRIPOS>BOND
     1     1    10 ar  
     2     1    12 ar  
     3     1    18 1   
     4     2    11 2   
     5     2    17 1   
     6     2    19 1   
     7     3     4 1   
     8     3     5 1   
     9     3    17 2   
    10     4     6 1   
    11     4     7 1   
    12     5    11 1   
    13     8     9 ar  
    14     8    10 ar  
    15     8    11 1   
    16     9    13 ar  
    17     9    14 1   
    18    10    15 1   
    19    12    13 ar  
    20    12    16 1   
    21    13    20 1   
    22    14    21 1   
    23    14    22 1   
    24    14    23 1   
    25    15    24 1   
    26    15    25 1   
    27    15    26 1   
    28    16    27 1   
    29    16    28 1   
    30    16    29 1   
    31    17    30 1   
@<TRIPOS>SUBSTRUCTURE
     1 ZJ7         1 TEMP              0 ****  ****    0 ROOT
