@<TRIPOS>MOLECULE
ZJ8
   38    39     1     0     0
SMALL
abcg2


@<TRIPOS>ATOM
      1 N1         -15.6730    17.1410    25.9970 ns         1 ZJ8      -0.516900
      2 N3         -19.1700    13.5400    25.8910 n          1 ZJ8      -0.406800
      3 C4         -16.5660    16.6830    26.9180 c          1 ZJ8       0.649100
      4 C5         -17.5630    15.2300    25.1370 c6         1 ZJ8       0.086500
      5 C6         -17.9780    13.7620    25.0830 c6         1 ZJ8       0.090500
      6 C7         -18.9730    13.9430    27.2820 c6         1 ZJ8       0.090500
      7 C8         -18.5980    15.4140    27.3520 c6         1 ZJ8       0.086500
      8 C10        -21.4740    12.7420    26.1360 cc         1 ZJ8       0.063500
      9 C13        -23.1000    13.4000    27.4640 cc         1 ZJ8       0.146900
     10 C1         -15.8380    19.9440    24.7600 c3         1 ZJ8      -0.090100
     11 C11        -22.4450    11.7870    26.0730 cd         1 ZJ8      -0.104000
     12 C12        -23.4940    12.2090    26.9420 cd         1 ZJ8      -0.196000
     13 C2         -15.3610    19.6210    26.1740 c3         1 ZJ8      -0.109400
     14 C3         -14.7490    18.2240    26.3030 c3         1 ZJ8       0.114000
     15 C9         -20.2070    12.8320    25.3830 c          1 ZJ8       0.544600
     16 N2         -17.4320    15.6880    26.5160 n          1 ZJ8      -0.426800
     17 O1         -16.5700    17.1080    28.0810 o          1 ZJ8      -0.646100
     18 O2         -20.1470    12.2600    24.2870 o          1 ZJ8      -0.598100
     19 O3         -21.8730    13.7410    26.9880 os         1 ZJ8      -0.249000
     20 H8         -15.8170    16.9350    25.0250 hn         1 ZJ8       0.304500
     21 H9         -18.3000    15.8390    24.5990 h1         1 ZJ8       0.056450
     22 H10        -16.6100    15.3050    24.6200 h1         1 ZJ8       0.056450
     23 H12        -18.1880    13.4780    24.0560 h1         1 ZJ8       0.066450
     24 H11        -17.1640    13.1360    25.4620 h1         1 ZJ8       0.066450
     25 H13        -19.8640    13.7600    27.8670 h1         1 ZJ8       0.066450
     26 H14        -18.1570    13.3400    27.6940 h1         1 ZJ8       0.066450
     27 H16        -19.4500    16.0200    27.0190 h1         1 ZJ8       0.056450
     28 H15        -18.3580    15.6860    28.3750 h1         1 ZJ8       0.056450
     29 H19        -23.5520    14.0980    28.1470 h4         1 ZJ8       0.055100
     30 H3         -16.2570    20.9500    24.7070 hc         1 ZJ8       0.031033
     31 H1         -15.0130    19.8850    24.0450 hc         1 ZJ8       0.031033
     32 H2         -16.6130    19.2460    24.4340 hc         1 ZJ8       0.031033
     33 H17        -22.4080    10.8910    25.4770 ha         1 ZJ8       0.157000
     34 H18        -24.4190    11.6960    27.1470 ha         1 ZJ8       0.147000
     35 H4         -14.6050    20.3480    26.4850 hc         1 ZJ8       0.054700
     36 H5         -16.1920    19.7080    26.8780 hc         1 ZJ8       0.054700
     37 H7         -13.9040    18.1260    25.6180 h1         1 ZJ8       0.057200
     38 H6         -14.3760    18.0740    27.3150 h1         1 ZJ8       0.057200
@<TRIPOS>BOND
     1     1     3 1   
     2     1    14 1   
     3     1    20 1   
     4     2     5 1   
     5     2     6 1   
     6     2    15 1   
     7     3    16 1   
     8     3    17 2   
     9     4     5 1   
    10     4    16 1   
    11     4    21 1   
    12     4    22 1   
    13     5    23 1   
    14     5    24 1   
    15     6     7 1   
    16     6    25 1   
    17     6    26 1   
    18     7    16 1   
    19     7    27 1   
    20     7    28 1   
    21     8    11 2   
    22     8    15 1   
    23     8    19 1   
    24     9    12 2   
    25     9    19 1   
    26     9    29 1   
    27    10    13 1   
    28    10    30 1   
    29    10    31 1   
    30    10    32 1   
    31    11    12 1   
    32    11    33 1   
    33    12    34 1   
    34    13    14 1   
    35    13    35 1   
    36    13    36 1   
    37    14    37 1   
    38    14    38 1   
    39    15    18 2   
@<TRIPOS>SUBSTRUCTURE
     1 ZJ8         1 TEMP              0 ****  ****    0 ROOT
