@<TRIPOS>MOLECULE
ZJ8
   38    39     1     0     0
SMALL
No Charge or Current Charge


@<TRIPOS>ATOM
      1 N1         -15.5340    17.2070    26.0740 ns         1 ZJ8      -0.516900
      2 N3         -19.3040    13.6870    25.8610 n          1 ZJ8      -0.406800
      3 C4         -16.4200    16.7810    27.0340 c          1 ZJ8       0.649100
      4 C5         -17.3820    15.2490    25.2520 c6         1 ZJ8       0.086500
      5 C6         -18.0810    13.8810    25.0420 c6         1 ZJ8       0.090500
      6 C7         -19.0290    13.9580    27.2990 c6         1 ZJ8       0.090500
      7 C8         -18.4050    15.3490    27.5560 c6         1 ZJ8       0.086500
      8 C10        -21.5850    12.6950    26.1670 cc         1 ZJ8       0.063500
      9 C13        -23.3100    13.2650    27.4430 cc         1 ZJ8       0.146900
     10 C1         -15.9860    19.9010    24.6780 c3         1 ZJ8      -0.090100
     11 C11        -22.5840    11.7850    25.9310 cd         1 ZJ8      -0.104000
     12 C12        -23.6740    12.1430    26.7510 cd         1 ZJ8      -0.196000
     13 C2         -15.3210    19.7030    26.0570 c3         1 ZJ8      -0.109400
     14 C3         -14.6160    18.3390    26.2240 c3         1 ZJ8       0.114000
     15 C9         -20.2700    12.7290    25.4470 c          1 ZJ8       0.544600
     16 N2         -17.2620    15.7110    26.6700 n          1 ZJ8      -0.426800
     17 O1         -16.4670    17.2970    28.1400 o          1 ZJ8      -0.646100
     18 O2         -20.0350    11.9850    24.5000 o          1 ZJ8      -0.598100
     19 O3         -22.0300    13.6280    27.0870 os         1 ZJ8      -0.249000
     20 H8         -15.5530    16.7190    25.1900 hn         1 ZJ8       0.304500
     21 H9         -17.9460    16.0120    24.6970 h1         1 ZJ8       0.056450
     22 H10        -16.3870    15.1820    24.7910 h1         1 ZJ8       0.056450
     23 H12        -18.3210    13.7760    23.9740 h1         1 ZJ8       0.066450
     24 H11        -17.3680    13.0810    25.2900 h1         1 ZJ8       0.066450
     25 H13        -19.9140    13.8500    27.9320 h1         1 ZJ8       0.066450
     26 H14        -18.3150    13.1990    27.6520 h1         1 ZJ8       0.066450
     27 H16        -19.1890    16.1090    27.4280 h1         1 ZJ8       0.056450
     28 H15        -18.0860    15.3920    28.6070 h1         1 ZJ8       0.056450
     29 H19        -23.8310    13.8750    28.1700 h4         1 ZJ8       0.055100
     30 H3         -16.4260    20.9030    24.6080 hc         1 ZJ8       0.031033
     31 H1         -15.2490    19.7940    23.8730 hc         1 ZJ8       0.031033
     32 H2         -16.7850    19.1670    24.5180 hc         1 ZJ8       0.031033
     33 H17        -22.5380    10.9510    25.2370 ha         1 ZJ8       0.157000
     34 H18        -24.6300    11.6340    26.8190 ha         1 ZJ8       0.147000
     35 H4         -14.5830    20.4990    26.2120 hc         1 ZJ8       0.054700
     36 H5         -16.0780    19.8210    26.8420 hc         1 ZJ8       0.054700
     37 H7         -13.8210    18.2460    25.4710 h1         1 ZJ8       0.057200
     38 H6         -14.1440    18.2890    27.2140 h1         1 ZJ8       0.057200
@<TRIPOS>BOND
     1     1     3 1   
     2     1    14 1   
     3     1    20 1   
     4     2     5 1   
     5     2     6 1   
     6     2    15 1   
     7     3    16 1   
     8     3    17 2   
     9     4     5 1   
    10     4    16 1   
    11     4    21 1   
    12     4    22 1   
    13     5    23 1   
    14     5    24 1   
    15     6     7 1   
    16     6    25 1   
    17     6    26 1   
    18     7    16 1   
    19     7    27 1   
    20     7    28 1   
    21     8    11 2   
    22     8    15 1   
    23     8    19 1   
    24     9    12 2   
    25     9    19 1   
    26     9    29 1   
    27    10    13 1   
    28    10    30 1   
    29    10    31 1   
    30    10    32 1   
    31    11    12 1   
    32    11    33 1   
    33    12    34 1   
    34    13    14 1   
    35    13    35 1   
    36    13    36 1   
    37    14    37 1   
    38    14    38 1   
    39    15    18 2   
@<TRIPOS>SUBSTRUCTURE
     1 ZJ8         1 TEMP              0 ****  ****    0 ROOT
