@<TRIPOS>MOLECULE
ZJ9
   50    53     1     0     0
SMALL
No Charge or Current Charge


@<TRIPOS>ATOM
      1 CBC         13.8330     2.6180   -13.9050 c5         1 ZJ9      -0.088400
      2 CBB         13.9420     3.8730   -12.9570 c5         1 ZJ9      -0.031100
      3 CBA         15.2730     4.4260   -13.3920 ca         1 ZJ9      -0.083300
      4 CAZ         15.7600     5.7240   -13.1690 ca         1 ZJ9      -0.099000
      5 CAY         17.0420     6.0610   -13.6440 ca         1 ZJ9      -0.105000
      6 CAX         17.8200     5.1020   -14.3270 ca         1 ZJ9      -0.114000
      7 CAW         17.3160     3.8030   -14.5390 ca         1 ZJ9      -0.079000
      8 CAV         16.0320     3.4880   -14.0640 ca         1 ZJ9      -0.117300
      9 CAU         15.3240     2.1630   -14.1740 c5         1 ZJ9       0.154000
     10 NAT         15.3030     1.5860   -15.5200 ns         1 ZJ9      -0.480900
     11 CAB         14.9450     0.2550   -15.6760 c          1 ZJ9       0.522600
     12 OAA         14.6680    -0.4670   -14.7230 o          1 ZJ9      -0.590100
     13 CAC         14.9340    -0.1980   -17.1060 cc         1 ZJ9       0.231500
     14 CAS         14.5940    -1.5210   -17.4600 cc         1 ZJ9      -0.187000
     15 NAD         15.2300     0.5590   -18.1620 nd         1 ZJ9      -0.351300
     16 OAE         15.0730    -0.3320   -19.2860 os         1 ZJ9      -0.076700
     17 CAF         14.6920    -1.5600   -18.8110 cd         1 ZJ9       0.236500
     18 CAG         14.4630    -2.6620   -19.7680 ca         1 ZJ9      -0.098500
     19 CAH         14.0640    -3.9370   -19.3130 ca         1 ZJ9      -0.178000
     20 CAI         13.8470    -4.9920   -20.2160 ca         1 ZJ9       0.155100
     21 OAJ         13.3890    -6.1840   -19.7330 oh         1 ZJ9      -0.529100
     22 CAK         14.6250    -2.4620   -21.1540 ca         1 ZJ9      -0.111000
     23 CAL         14.4070    -3.5130   -22.0590 ca         1 ZJ9      -0.046000
     24 CAM         14.0420    -4.7940   -21.6000 ca         1 ZJ9      -0.148600
     25 CAN         13.8220    -5.8870   -22.6170 c          1 ZJ9       0.625700
     26 OAR         13.0900    -5.6890   -23.5810 o          1 ZJ9      -0.601100
     27 NAO         14.4330    -7.1480   -22.4220 n          1 ZJ9      -0.399800
     28 CAQ         15.6530    -7.2900   -21.5930 c3         1 ZJ9       0.089800
     29 CAP         14.1140    -8.2720   -23.3270 c3         1 ZJ9       0.089800
     30 H1          13.3360     2.9160   -14.8360 hc         1 ZJ9       0.054700
     31 H2          13.2260     1.8180   -13.4690 hc         1 ZJ9       0.054700
     32 H3          13.1130     4.5760   -13.1020 hc         1 ZJ9       0.057700
     33 H4          13.9550     3.5820   -11.9000 hc         1 ZJ9       0.057700
     34 H5          15.1570     6.4570   -12.6380 ha         1 ZJ9       0.115000
     35 H6          17.4350     7.0630   -13.4810 ha         1 ZJ9       0.113000
     36 H7          18.8110     5.3650   -14.6900 ha         1 ZJ9       0.114000
     37 H8          17.9130     3.0580   -15.0600 ha         1 ZJ9       0.121000
     38 H9          15.6910     1.4710   -13.4020 h1         1 ZJ9       0.093700
     39 H10         15.5180     2.1100   -16.3620 hn         1 ZJ9       0.333500
     40 H11         14.3180    -2.3170   -16.7790 ha         1 ZJ9       0.168000
     41 H12         13.9110    -4.1060   -18.2500 ha         1 ZJ9       0.123000
     42 H13         13.2770    -6.1060   -18.7620 ho         1 ZJ9       0.469000
     43 H14         14.9200    -1.4890   -21.5430 ha         1 ZJ9       0.139000
     44 H15         14.5380    -3.3360   -23.1250 ha         1 ZJ9       0.135000
     45 H16         16.1400    -6.3180   -21.4440 h1         1 ZJ9       0.043867
     46 H17         15.3920    -7.7180   -20.6170 h1         1 ZJ9       0.043867
     47 H18         16.3680    -7.9580   -22.0900 h1         1 ZJ9       0.043867
     48 H19         14.5570    -8.0890   -24.3150 h1         1 ZJ9       0.043867
     49 H20         14.5140    -9.2110   -22.9230 h1         1 ZJ9       0.043867
     50 H21         13.0260    -8.3710   -23.4320 h1         1 ZJ9       0.043867
@<TRIPOS>BOND
     1     1     2 1   
     2     1     9 1   
     3     1    30 1   
     4     1    31 1   
     5     2     3 1   
     6     2    32 1   
     7     2    33 1   
     8     3     4 ar  
     9     3     8 ar  
    10     4     5 ar  
    11     4    34 1   
    12     5     6 ar  
    13     5    35 1   
    14     6     7 ar  
    15     6    36 1   
    16     7     8 ar  
    17     7    37 1   
    18     8     9 1   
    19     9    10 1   
    20     9    38 1   
    21    10    11 1   
    22    10    39 1   
    23    11    12 2   
    24    11    13 1   
    25    13    14 1   
    26    13    15 2   
    27    14    17 2   
    28    14    40 1   
    29    15    16 1   
    30    16    17 1   
    31    17    18 1   
    32    18    19 ar  
    33    18    22 ar  
    34    19    20 ar  
    35    19    41 1   
    36    20    21 1   
    37    20    24 ar  
    38    21    42 1   
    39    22    23 ar  
    40    22    43 1   
    41    23    24 ar  
    42    23    44 1   
    43    24    25 1   
    44    25    26 2   
    45    25    27 1   
    46    27    28 1   
    47    27    29 1   
    48    28    45 1   
    49    28    46 1   
    50    28    47 1   
    51    29    48 1   
    52    29    49 1   
    53    29    50 1   
@<TRIPOS>SUBSTRUCTURE
     1 ZJ9         1 TEMP              0 ****  ****    0 ROOT
