@<TRIPOS>MOLECULE
ZJ9
   50    53     1     0     0
SMALL
abcg2


@<TRIPOS>ATOM
      1 CBC         13.4220     3.6850   -14.2730 c5         1 ZJ9      -0.088400
      2 CBB         14.1150     4.7790   -13.4350 c5         1 ZJ9      -0.031100
      3 CBA         15.5820     4.5150   -13.6700 ca         1 ZJ9      -0.083300
      4 CAZ         16.6750     5.3390   -13.4320 ca         1 ZJ9      -0.099000
      5 CAY         17.9550     4.8680   -13.7260 ca         1 ZJ9      -0.105000
      6 CAX         18.1380     3.5890   -14.2510 ca         1 ZJ9      -0.114000
      7 CAW         17.0410     2.7610   -14.4860 ca         1 ZJ9      -0.079000
      8 CAV         15.7720     3.2360   -14.1910 ca         1 ZJ9      -0.117300
      9 CAU         14.4400     2.5270   -14.3310 c5         1 ZJ9       0.154000
     10 NAT         14.3110     1.7200   -15.5300 ns         1 ZJ9      -0.480900
     11 CAB         14.4120     0.3820   -15.5450 c          1 ZJ9       0.522600
     12 OAA         14.6070    -0.3210   -14.5550 o          1 ZJ9      -0.590100
     13 CAC         14.2640    -0.2540   -16.8920 cc         1 ZJ9       0.231500
     14 CAS         14.3350    -1.6360   -17.1800 cc         1 ZJ9      -0.187000
     15 NAD         14.0430     0.4590   -17.9720 nd         1 ZJ9      -0.351300
     16 OAE         13.9630    -0.4530   -19.0120 os         1 ZJ9      -0.076700
     17 CAF         14.1380    -1.7080   -18.5290 cd         1 ZJ9       0.236500
     18 CAG         14.0840    -2.8100   -19.4770 ca         1 ZJ9      -0.098500
     19 CAH         14.2540    -4.1190   -19.0170 ca         1 ZJ9      -0.178000
     20 CAI         14.2050    -5.1860   -19.9050 ca         1 ZJ9       0.155100
     21 OAJ         14.3580    -6.4750   -19.4990 oh         1 ZJ9      -0.529100
     22 CAK         13.8590    -2.5800   -20.8380 ca         1 ZJ9      -0.111000
     23 CAL         13.8030    -3.6530   -21.7130 ca         1 ZJ9      -0.046000
     24 CAM         13.9850    -4.9590   -21.2680 ca         1 ZJ9      -0.148600
     25 CAN         13.8300    -6.0950   -22.2420 c          1 ZJ9       0.625700
     26 OAR         12.7140    -6.3070   -22.7320 o          1 ZJ9      -0.601100
     27 NAO         14.9220    -6.8200   -22.5490 n          1 ZJ9      -0.399800
     28 CAQ         16.2580    -6.5540   -22.0380 c3         1 ZJ9       0.089800
     29 CAP         14.8150    -7.9720   -23.4320 c3         1 ZJ9       0.089800
     30 H1          13.2590     4.0540   -15.2890 hc         1 ZJ9       0.054700
     31 H2          12.4610     3.3710   -13.8690 hc         1 ZJ9       0.054700
     32 H3          13.8120     5.7870   -13.7230 hc         1 ZJ9       0.057700
     33 H4          13.8760     4.6610   -12.3730 hc         1 ZJ9       0.057700
     34 H5          16.5380     6.3370   -13.0340 ha         1 ZJ9       0.115000
     35 H6          18.8140     5.5040   -13.5520 ha         1 ZJ9       0.113000
     36 H7          19.1370     3.2400   -14.4800 ha         1 ZJ9       0.114000
     37 H8          17.1790     1.7690   -14.8990 ha         1 ZJ9       0.121000
     38 H9          14.2980     1.8490   -13.4880 h1         1 ZJ9       0.093700
     39 H10         14.1930     2.1960   -16.4130 hn         1 ZJ9       0.333500
     40 H11         14.5050    -2.4390   -16.4860 ha         1 ZJ9       0.168000
     41 H12         14.4220    -4.3150   -17.9660 ha         1 ZJ9       0.123000
     42 H13         14.5070    -6.5130   -18.5440 ho         1 ZJ9       0.469000
     43 H14         13.7260    -1.5730   -21.2070 ha         1 ZJ9       0.139000
     44 H15         13.6220    -3.4790   -22.7660 ha         1 ZJ9       0.135000
     45 H16         16.2950    -5.5900   -21.5410 h1         1 ZJ9       0.043867
     46 H17         16.5590    -7.3330   -21.3330 h1         1 ZJ9       0.043867
     47 H18         16.9630    -6.5450   -22.8710 h1         1 ZJ9       0.043867
     48 H19         15.3830    -7.7950   -24.3490 h1         1 ZJ9       0.043867
     49 H20         15.2260    -8.8530   -22.9340 h1         1 ZJ9       0.043867
     50 H21         13.7730    -8.1450   -23.6790 h1         1 ZJ9       0.043867
@<TRIPOS>BOND
     1     1     2 1   
     2     1     9 1   
     3     1    30 1   
     4     1    31 1   
     5     2     3 1   
     6     2    32 1   
     7     2    33 1   
     8     3     4 ar  
     9     3     8 ar  
    10     4     5 ar  
    11     4    34 1   
    12     5     6 ar  
    13     5    35 1   
    14     6     7 ar  
    15     6    36 1   
    16     7     8 ar  
    17     7    37 1   
    18     8     9 1   
    19     9    10 1   
    20     9    38 1   
    21    10    11 1   
    22    10    39 1   
    23    11    12 2   
    24    11    13 1   
    25    13    14 1   
    26    13    15 2   
    27    14    17 2   
    28    14    40 1   
    29    15    16 1   
    30    16    17 1   
    31    17    18 1   
    32    18    19 ar  
    33    18    22 ar  
    34    19    20 ar  
    35    19    41 1   
    36    20    21 1   
    37    20    24 ar  
    38    21    42 1   
    39    22    23 ar  
    40    22    43 1   
    41    23    24 ar  
    42    23    44 1   
    43    24    25 1   
    44    25    26 2   
    45    25    27 1   
    46    27    28 1   
    47    27    29 1   
    48    28    45 1   
    49    28    46 1   
    50    28    47 1   
    51    29    48 1   
    52    29    49 1   
    53    29    50 1   
@<TRIPOS>SUBSTRUCTURE
     1 ZJ9         1 TEMP              0 ****  ****    0 ROOT
