@<TRIPOS>MOLECULE
ZJA
   24    25     1     0     0
SMALL
bcc


@<TRIPOS>ATOM
      1 C12          1.4620     2.9080    15.2670 c          1 ZJA       0.944200
      2 C01          5.3560    -0.6930     9.2070 ca         1 ZJA      -0.151000
      3 C02          6.0270     0.4490     9.6180 ca         1 ZJA      -0.138000
      4 C03          5.4810     1.3310    10.5500 ca         1 ZJA      -0.072300
      5 C04          4.2100     1.0430    11.0760 ca         1 ZJA       0.041000
      6 C05          3.5460    -0.1160    10.6620 ca         1 ZJA      -0.128000
      7 C06          4.1060    -0.9800     9.7370 ca         1 ZJA      -0.136000
      8 C07          3.5550     1.9210    12.0540 cc         1 ZJA      -0.112100
      9 C08          3.4010     3.2820    12.0270 cd         1 ZJA      -0.138000
     10 C09          2.6610     3.7810    13.1260 cd         1 ZJA      -0.189000
     11 C10          2.2560     2.8050    13.9900 cc         1 ZJA      -0.060700
     12 S11          2.7870     1.2610    13.4540 ss         1 ZJA      -0.070800
     13 O13          1.2600     1.8300    15.8570 o          1 ZJA      -0.813300
     14 O14          1.0930     4.0500    15.5940 o          1 ZJA      -0.813300
     15 H1           5.9480     3.4370    10.4470 hc         1 ZJA       0.039033
     16 H2           6.1960     2.7320    12.0320 hc         1 ZJA       0.039033
     17 H3           7.3320     2.3960    10.7250 hc         1 ZJA       0.039033
     18 H4           5.8100    -1.3550     8.4820 ha         1 ZJA       0.114000
     19 H5           7.0090     0.6610     9.2130 ha         1 ZJA       0.113000
     20 H6           2.5620    -0.3310    11.0610 ha         1 ZJA       0.140000
     21 H7           3.5680    -1.8670     9.4290 ha         1 ZJA       0.119000
     22 H8           3.7830     3.9050    11.2300 ha         1 ZJA       0.122000
     23 H9           2.4300     4.8270    13.2700 ha         1 ZJA       0.154000
     24 C15          6.2780     2.5340    10.9640 c3         1 ZJA      -0.039800
@<TRIPOS>BOND
     1     1    11 1   
     2     1    13 1   
     3     1    14 1   
     4     2     3 ar  
     5     2     7 ar  
     6     2    18 1   
     7     3     4 ar  
     8     3    19 1   
     9     4     5 ar  
    10     4    24 1   
    11     5     6 ar  
    12     5     8 1   
    13     6     7 ar  
    14     6    20 1   
    15     7    21 1   
    16     8     9 2   
    17     8    12 1   
    18     9    10 1   
    19     9    22 1   
    20    10    11 2   
    21    10    23 1   
    22    11    12 1   
    23    15    24 1   
    24    16    24 1   
    25    17    24 1   
@<TRIPOS>SUBSTRUCTURE
     1 ZJA         1 TEMP              0 ****  ****    0 ROOT
