@<TRIPOS>MOLECULE
ZJA
   24    25     1     0     0
SMALL
No Charge or Current Charge


@<TRIPOS>ATOM
      1 C12          1.5890     3.0900    15.3110 c          1 ZJA       0.733600
      2 C01          5.3780    -0.6200     9.0990 ca         1 ZJA      -0.133000
      3 C02          6.0640     0.5010     9.5930 ca         1 ZJA      -0.120000
      4 C03          5.4890     1.3120    10.5930 ca         1 ZJA      -0.072300
      5 C04          4.2010     0.9920    11.0950 ca         1 ZJA       0.041000
      6 C05          3.5280    -0.1420    10.5990 ca         1 ZJA      -0.110000
      7 C06          4.1110    -0.9440     9.6040 ca         1 ZJA      -0.118000
      8 C07          3.5450     1.7930    12.1280 cc         1 ZJA      -0.257000
      9 C08          3.2610     3.1210    11.9360 cd         1 ZJA      -0.120000
     10 C09          2.5600     3.6910    13.0330 cd         1 ZJA      -0.171000
     11 C10          2.2960     2.7870    14.0440 cc         1 ZJA      -0.205600
     12 S11          2.9000     1.1800    13.6470 ss         1 ZJA       0.219000
     13 O13          1.4210     2.1880    16.1190 o          1 ZJA      -0.708000
     14 O14          1.1980     4.2320    15.5080 o          1 ZJA      -0.708000
     15 H1           5.9570     3.4360    10.6600 hc         1 ZJA       0.039033
     16 H2           6.1790     2.6040    12.2110 hc         1 ZJA       0.039033
     17 H3           7.3580     2.3900    10.9190 hc         1 ZJA       0.039033
     18 H4           5.8310    -1.2390     8.3280 ha         1 ZJA       0.096000
     19 H5           7.0490     0.7380     9.1990 ha         1 ZJA       0.095000
     20 H6           2.5430    -0.3960    10.9820 ha         1 ZJA       0.122000
     21 H7           3.5790    -1.8140     9.2260 ha         1 ZJA       0.101000
     22 H8           3.5340     3.6780    11.0440 ha         1 ZJA       0.104000
     23 H9           2.2590     4.7340    13.0690 ha         1 ZJA       0.136000
     24 C15          6.2870     2.5000    11.1250 c3         1 ZJA      -0.039800
@<TRIPOS>BOND
     1     1    11 1   
     2     1    13 1   
     3     1    14 1   
     4     2     3 ar  
     5     2     7 ar  
     6     2    18 1   
     7     3     4 ar  
     8     3    19 1   
     9     4     5 ar  
    10     4    24 1   
    11     5     6 ar  
    12     5     8 1   
    13     6     7 ar  
    14     6    20 1   
    15     7    21 1   
    16     8     9 2   
    17     8    12 1   
    18     9    10 1   
    19     9    22 1   
    20    10    11 2   
    21    10    23 1   
    22    11    12 1   
    23    15    24 1   
    24    16    24 1   
    25    17    24 1   
@<TRIPOS>SUBSTRUCTURE
     1 ZJA         1 TEMP              0 ****  ****    0 ROOT
