@<TRIPOS>MOLECULE
ZJD
   27    28     1     0     0
SMALL
No Charge or Current Charge


@<TRIPOS>ATOM
      1 C10          2.7210    52.0470    10.1750 ca         1 ZJD      -0.118000
      2 C13          5.7580    52.9250    10.9470 c3         1 ZJD      -0.082100
      3 C01          5.8570    49.7060    14.6900 cc         1 ZJD      -0.172000
      4 C02          4.9630    48.7830    15.1760 cd         1 ZJD      -0.206600
      5 S03          3.4020    48.9270    14.3570 ss         1 ZJD       0.219000
      6 C04          4.0080    50.2820    13.3620 cd         1 ZJD      -0.257000
      7 C05          5.3270    50.5320    13.6700 cc         1 ZJD      -0.121000
      8 C06          3.1540    50.8710    12.2890 ca         1 ZJD       0.044000
      9 C07          1.7510    50.8020    12.4740 ca         1 ZJD      -0.111000
     10 C08          0.8550    51.3520    11.5460 ca         1 ZJD      -0.118000
     11 C09          1.3400    51.9810    10.3970 ca         1 ZJD      -0.133000
     12 C11          3.6400    51.4980    11.0960 ca         1 ZJD      -0.072300
     13 C12          5.1110    51.5510    10.6760 c3         1 ZJD      -0.030100
     14 O15          6.3550    47.7750    16.7580 o          1 ZJD      -0.708000
     15 O16          4.3480    47.0320    16.5860 o          1 ZJD      -0.708000
     16 H1           3.0830    52.5210     9.2650 ha         1 ZJD       0.096000
     17 H2           6.8240    52.9040    10.6890 hc         1 ZJD       0.027700
     18 H3           5.2760    53.7030    10.3440 hc         1 ZJD       0.027700
     19 H4           5.6620    53.2080    12.0020 hc         1 ZJD       0.027700
     20 H5           6.8800    49.8090    15.0420 ha         1 ZJD       0.136000
     21 H6           5.9370    51.3080    13.2260 ha         1 ZJD       0.105000
     22 H7           1.3330    50.3480    13.3670 ha         1 ZJD       0.122000
     23 H8          -0.2170    51.2950    11.7230 ha         1 ZJD       0.101000
     24 H9           0.6490    52.4090     9.6740 ha         1 ZJD       0.096000
     25 H10          5.1840    51.3570     9.5980 hc         1 ZJD       0.050700
     26 H11          5.6980    50.7460    11.1270 hc         1 ZJD       0.050700
     27 C14          5.2420    47.7940    16.2500 c          1 ZJD       0.733600
@<TRIPOS>BOND
     1     1    11 ar  
     2     1    12 ar  
     3     1    16 1   
     4     2    13 1   
     5     2    17 1   
     6     2    18 1   
     7     2    19 1   
     8     3     4 2   
     9     3     7 1   
    10     3    20 1   
    11     4     5 1   
    12     4    27 1   
    13     5     6 1   
    14     6     7 2   
    15     6     8 1   
    16     7    21 1   
    17     8     9 ar  
    18     8    12 ar  
    19     9    10 ar  
    20     9    22 1   
    21    10    11 ar  
    22    10    23 1   
    23    11    24 1   
    24    12    13 1   
    25    13    25 1   
    26    13    26 1   
    27    14    27 1   
    28    15    27 1   
@<TRIPOS>SUBSTRUCTURE
     1 ZJD         1 TEMP              0 ****  ****    0 ROOT
