@<TRIPOS>MOLECULE
ZJD
   27    28     1     0     0
SMALL
bcc


@<TRIPOS>ATOM
      1 C10          2.7300    51.9300    10.1810 ca         1 ZJD      -0.136000
      2 C13          5.7470    52.7970    10.8450 c3         1 ZJD      -0.082100
      3 C01          5.7730    49.9410    14.8550 cc         1 ZJD      -0.190000
      4 C02          5.0340    48.8140    15.0620 cd         1 ZJD      -0.061700
      5 S03          3.6510    48.7990    14.0430 ss         1 ZJD      -0.070800
      6 C04          4.0580    50.3190    13.3290 cd         1 ZJD      -0.112100
      7 C05          5.2210    50.7980    13.8700 cc         1 ZJD      -0.139000
      8 C06          3.1750    50.9090    12.3130 ca         1 ZJD       0.044000
      9 C07          1.7980    50.9370    12.5690 ca         1 ZJD      -0.129000
     10 C08          0.9010    51.4550    11.6520 ca         1 ZJD      -0.136000
     11 C09          1.3710    51.9590    10.4470 ca         1 ZJD      -0.151000
     12 C11          3.6520    51.4110    11.0910 ca         1 ZJD      -0.072300
     13 C12          5.1060    51.4180    10.6980 c3         1 ZJD      -0.030100
     14 O15          6.2830    47.7100    16.7050 o          1 ZJD      -0.813300
     15 O16          4.3940    46.7640    15.9540 o          1 ZJD      -0.813300
     16 H1           3.0940    52.3080     9.2330 ha         1 ZJD       0.114000
     17 H2           6.7950    52.7690    10.5440 hc         1 ZJD       0.027700
     18 H3           5.2420    53.5330    10.2190 hc         1 ZJD       0.027700
     19 H4           5.7030    53.1560    11.8730 hc         1 ZJD       0.027700
     20 H5           6.6850    50.1560    15.3940 ha         1 ZJD       0.154000
     21 H6           5.6610    51.7450    13.5900 ha         1 ZJD       0.123000
     22 H7           1.4290    50.5580    13.5140 ha         1 ZJD       0.140000
     23 H8          -0.1580    51.4660    11.8780 ha         1 ZJD       0.119000
     24 H9           0.6830    52.3650     9.7160 ha         1 ZJD       0.114000
     25 H10          5.1850    51.1060     9.6540 hc         1 ZJD       0.050700
     26 H11          5.6660    50.6860    11.2800 hc         1 ZJD       0.050700
     27 C14          5.2630    47.6550    15.9970 c          1 ZJD       0.944200
@<TRIPOS>BOND
     1     1    11 ar  
     2     1    12 ar  
     3     1    16 1   
     4     2    13 1   
     5     2    17 1   
     6     2    18 1   
     7     2    19 1   
     8     3     4 2   
     9     3     7 1   
    10     3    20 1   
    11     4     5 1   
    12     4    27 1   
    13     5     6 1   
    14     6     7 2   
    15     6     8 1   
    16     7    21 1   
    17     8     9 ar  
    18     8    12 ar  
    19     9    10 ar  
    20     9    22 1   
    21    10    11 ar  
    22    10    23 1   
    23    11    24 1   
    24    12    13 1   
    25    13    25 1   
    26    13    26 1   
    27    14    27 1   
    28    15    27 1   
@<TRIPOS>SUBSTRUCTURE
     1 ZJD         1 TEMP              0 ****  ****    0 ROOT
