@<TRIPOS>MOLECULE
ZJE
   43    45     1     0     0
SMALL
abcg2


@<TRIPOS>ATOM
      1 N1         -16.0770    17.4070    25.9930 ns         1 ZJE      -0.498900
      2 N3         -19.3610    13.6240    25.8120 n          1 ZJE      -0.410800
      3 C4         -15.0090    20.9410    27.0890 c5         1 ZJE      -0.100400
      4 C5         -15.6890    22.1500    26.4390 c5         1 ZJE      -0.110400
      5 C6         -16.3170    21.5170    25.2070 c5         1 ZJE       0.151600
      6 C7         -18.0060    15.5520    25.1610 c6         1 ZJE       0.082000
      7 C8         -18.4200    14.1230    24.8210 c6         1 ZJE       0.089500
      8 C10        -18.4070    15.0670    27.5410 c6         1 ZJE       0.082000
      9 C13        -21.9570    13.5470    27.5580 cc         1 ZJE      -0.101000
     10 C15        -23.5180    11.8380    27.6390 cd         1 ZJE      -0.245000
     11 C1         -16.6250    16.6090    26.9540 c          1 ZJE       0.645100
     12 C11        -20.5470    13.0950    25.4270 c          1 ZJE       0.647700
     13 C12        -21.5690    12.8150    26.4630 cd         1 ZJE      -0.285600
     14 C14        -23.0750    12.9890    28.2300 cc         1 ZJE      -0.141000
     15 C2         -15.1990    18.5090    26.3460 c3         1 ZJE       0.098000
     16 C3         -15.9460    19.7760    26.7420 c5         1 ZJE       0.123300
     17 C9         -18.8000    13.6500    27.1590 c6         1 ZJE       0.089500
     18 N2         -17.5190    15.6460    26.5340 n          1 ZJE      -0.419800
     19 O1         -16.3010    16.7120    28.1440 o          1 ZJE      -0.649100
     20 O2         -16.7700    20.2270    25.6430 os         1 ZJE      -0.480000
     21 O3         -20.8100    12.8630    24.2400 o          1 ZJE      -0.606100
     22 S1         -22.5990    11.4400    26.2480 ss         1 ZJE       0.287000
     23 H1         -16.5480    17.4990    25.1090 hn         1 ZJE       0.312500
     24 H5         -14.8750    21.0470    28.1650 hc         1 ZJE       0.055700
     25 H6         -14.0260    20.7760    26.6410 hc         1 ZJE       0.055700
     26 H7         -16.4670    22.5520    27.0920 hc         1 ZJE       0.057700
     27 H8         -14.9930    22.9520    26.1940 hc         1 ZJE       0.057700
     28 H9         -17.1780    22.0610    24.8170 h1         1 ZJE       0.046200
     29 H10        -15.5780    21.4060    24.4040 h1         1 ZJE       0.046200
     30 H11        -18.8600    16.2230    25.0070 h1         1 ZJE       0.056200
     31 H12        -17.2160    15.8280    24.4660 h1         1 ZJE       0.056200
     32 H13        -18.8880    14.0990    23.8420 h1         1 ZJE       0.066450
     33 H14        -17.5380    13.4750    24.8040 h1         1 ZJE       0.066450
     34 H17        -19.3120    15.6810    27.6380 h1         1 ZJE       0.056200
     35 H18        -17.8900    15.0630    28.4940 h1         1 ZJE       0.056200
     36 H21        -24.3340    11.2020    27.9460 h4         1 ZJE       0.153000
     37 H20        -23.5280    13.4220    29.1100 ha         1 ZJE       0.137000
     38 H2         -14.5580    18.1960    27.1690 h1         1 ZJE       0.065200
     39 H3         -14.5660    18.7250    25.4830 h1         1 ZJE       0.065200
     40 H4         -16.6220    19.5480    27.5710 h1         1 ZJE       0.075700
     41 H15        -19.5070    13.2470    27.8750 h1         1 ZJE       0.066450
     42 H16        -17.9100    13.0120    27.1630 h1         1 ZJE       0.066450
     43 H19        -21.4790    14.4680    27.8580 ha         1 ZJE       0.135000
@<TRIPOS>BOND
     1     1    11 1   
     2     1    15 1   
     3     1    23 1   
     4     2     7 1   
     5     2    12 1   
     6     2    17 1   
     7     3     4 1   
     8     3    16 1   
     9     3    24 1   
    10     3    25 1   
    11     4     5 1   
    12     4    26 1   
    13     4    27 1   
    14     5    20 1   
    15     5    28 1   
    16     5    29 1   
    17     6     7 1   
    18     6    18 1   
    19     6    30 1   
    20     6    31 1   
    21     7    32 1   
    22     7    33 1   
    23     8    17 1   
    24     8    18 1   
    25     8    34 1   
    26     8    35 1   
    27     9    13 2   
    28     9    14 1   
    29     9    43 1   
    30    10    14 2   
    31    10    22 1   
    32    10    36 1   
    33    11    18 1   
    34    11    19 2   
    35    12    13 1   
    36    12    21 2   
    37    13    22 1   
    38    14    37 1   
    39    15    16 1   
    40    15    38 1   
    41    15    39 1   
    42    16    20 1   
    43    16    40 1   
    44    17    41 1   
    45    17    42 1   
@<TRIPOS>SUBSTRUCTURE
     1 ZJE         1 TEMP              0 ****  ****    0 ROOT
