@<TRIPOS>MOLECULE
ZJE
   43    45     1     0     0
SMALL
No Charge or Current Charge


@<TRIPOS>ATOM
      1 N1         -16.0290    17.5050    26.0830 ns         1 ZJE      -0.498900
      2 N3         -19.5840    13.7830    25.8190 n          1 ZJE      -0.410800
      3 C4         -14.9560    21.1400    27.1260 c5         1 ZJE      -0.100400
      4 C5         -15.6110    22.2460    26.2490 c5         1 ZJE      -0.110400
      5 C6         -16.3280    21.3920    25.1840 c5         1 ZJE       0.151600
      6 C7         -17.9650    15.6490    25.2210 c6         1 ZJE       0.082000
      7 C8         -18.6640    14.3320    24.7950 c6         1 ZJE       0.089500
      8 C10        -18.2430    14.9340    27.6310 c6         1 ZJE       0.082000
      9 C13        -22.0040    13.3280    27.5000 cc         1 ZJE      -0.101000
     10 C15        -23.7350    11.7680    27.5760 cd         1 ZJE      -0.245000
     11 C1         -16.5660    16.7040    27.0610 c          1 ZJE       0.645100
     12 C11        -20.5710    12.8530    25.4270 c          1 ZJE       0.647700
     13 C12        -21.6710    12.5820    26.3910 cd         1 ZJE      -0.285600
     14 C14        -23.1590    12.8600    28.1700 cc         1 ZJE      -0.141000
     15 C2         -15.1570    18.6590    26.3360 c3         1 ZJE       0.098000
     16 C3         -15.8910    19.9010    26.9160 c5         1 ZJE       0.123300
     17 C9         -18.8790    13.6220    27.1180 c6         1 ZJE       0.089500
     18 N2         -17.4430    15.6900    26.6240 n          1 ZJE      -0.419800
     19 O1         -16.2890    16.8610    28.2400 o          1 ZJE      -0.649100
     20 O2         -16.9090    20.3560    25.9910 os         1 ZJE      -0.480000
     21 O3         -20.5350    12.3150    24.3280 o          1 ZJE      -0.606100
     22 S1         -22.8460    11.2830    26.1200 ss         1 ZJE       0.287000
     23 H1         -16.3190    17.3220    25.1330 hn         1 ZJE       0.312500
     24 H5         -14.8960    21.4350    28.1800 hc         1 ZJE       0.055700
     25 H6         -13.9310    20.9310    26.7970 hc         1 ZJE       0.055700
     26 H7         -16.3320    22.8420    26.8220 hc         1 ZJE       0.057700
     27 H8         -14.8790    22.9360    25.8150 hc         1 ZJE       0.057700
     28 H9         -17.1110    21.9410    24.6440 h1         1 ZJE       0.046200
     29 H10        -15.6280    20.9510    24.4610 h1         1 ZJE       0.046200
     30 H11        -18.6860    16.4720    25.1070 h1         1 ZJE       0.056200
     31 H12        -17.1490    15.8330    24.5090 h1         1 ZJE       0.056200
     32 H13        -19.2100    14.5110    23.8580 h1         1 ZJE       0.066450
     33 H14        -17.8930    13.5780    24.5790 h1         1 ZJE       0.066450
     34 H17        -19.0470    15.5920    27.9920 h1         1 ZJE       0.056200
     35 H18        -17.6120    14.6930    28.4980 h1         1 ZJE       0.056200
     36 H21        -24.6220    11.2240    27.8800 h4         1 ZJE       0.153000
     37 H20        -23.5480    13.3430    29.0620 ha         1 ZJE       0.137000
     38 H2         -14.3690    18.3560    27.0370 h1         1 ZJE       0.065200
     39 H3         -14.6670    18.9380    25.3940 h1         1 ZJE       0.065200
     40 H4         -16.3780    19.6100    27.8570 h1         1 ZJE       0.075700
     41 H15        -19.5280    13.2010    27.8940 h1         1 ZJE       0.066450
     42 H16        -18.0720    12.8900    26.9750 h1         1 ZJE       0.066450
     43 H19        -21.4790    14.2180    27.8360 ha         1 ZJE       0.135000
@<TRIPOS>BOND
     1     1    11 1   
     2     1    15 1   
     3     1    23 1   
     4     2     7 1   
     5     2    12 1   
     6     2    17 1   
     7     3     4 1   
     8     3    16 1   
     9     3    24 1   
    10     3    25 1   
    11     4     5 1   
    12     4    26 1   
    13     4    27 1   
    14     5    20 1   
    15     5    28 1   
    16     5    29 1   
    17     6     7 1   
    18     6    18 1   
    19     6    30 1   
    20     6    31 1   
    21     7    32 1   
    22     7    33 1   
    23     8    17 1   
    24     8    18 1   
    25     8    34 1   
    26     8    35 1   
    27     9    13 2   
    28     9    14 1   
    29     9    43 1   
    30    10    14 2   
    31    10    22 1   
    32    10    36 1   
    33    11    18 1   
    34    11    19 2   
    35    12    13 1   
    36    12    21 2   
    37    13    22 1   
    38    14    37 1   
    39    15    16 1   
    40    15    38 1   
    41    15    39 1   
    42    16    20 1   
    43    16    40 1   
    44    17    41 1   
    45    17    42 1   
@<TRIPOS>SUBSTRUCTURE
     1 ZJE         1 TEMP              0 ****  ****    0 ROOT
