@<TRIPOS>MOLECULE
ZJF
   37    39     1     0     0
SMALL
No Charge or Current Charge


@<TRIPOS>ATOM
      1 N1          14.8830     0.4060   -14.4180 ns         1 ZJF      -0.484900
      2 N3          14.3530    -0.8450   -16.9330 nc         1 ZJF      -0.671000
      3 C4          14.1650     2.7230   -11.6670 c5         1 ZJF      -0.078400
      4 C5          15.4830     3.3100   -12.2800 c5         1 ZJF      -0.078400
      5 C6          14.6570    -0.9580   -14.3750 c          1 ZJF       0.540600
      6 C7          14.3730    -1.5390   -15.7320 cc         1 ZJF       0.172500
      7 C8          14.1480    -2.8810   -15.9220 cd         1 ZJF      -0.133000
      8 C10         14.3540    -4.0970   -17.9180 ca         1 ZJF       0.043800
      9 C13         15.3260    -6.3820   -19.2440 ca         1 ZJF      -0.142000
     10 C15         15.7430    -4.3180   -18.0270 ca         1 ZJF      -0.156000
     11 C1          15.7030     2.5020   -13.5900 c5         1 ZJF      -0.094900
     12 C2          15.1470     1.1240   -13.1680 c5         1 ZJF       0.105700
     13 C3          13.7670     1.5500   -12.6120 c5         1 ZJF      -0.094900
     14 O1          14.6900    -1.6070   -13.3330 o          1 ZJF      -0.625100
     15 N2          13.8560    -2.9720   -17.2670 na         1 ZJF      -0.087300
     16 C9          14.1170    -1.7570   -17.8750 cd         1 ZJF       0.413400
     17 C11         13.4580    -5.0270   -18.4760 ca         1 ZJF      -0.212000
     18 C12         13.9440    -6.1660   -19.1370 ca         1 ZJF       0.156100
     19 C14         16.2290    -5.4590   -18.6890 ca         1 ZJF      -0.057000
     20 O2          13.0770    -7.0670   -19.6770 oh         1 ZJF      -0.530100
     21 H1          14.8350     0.8400   -15.3330 hn         1 ZJF       0.332500
     22 H2          13.3700     3.4750   -11.6050 hc         1 ZJF       0.043450
     23 H3          14.3420     2.3650   -10.6460 hc         1 ZJF       0.043450
     24 H4          16.3240     3.1710   -11.5900 hc         1 ZJF       0.043450
     25 H5          15.4070     4.3860   -12.4740 hc         1 ZJF       0.043450
     26 H6          14.1600    -3.7180   -15.2350 h4         1 ZJF       0.176000
     27 H7          15.6990    -7.2660   -19.7570 ha         1 ZJF       0.138000
     28 H8          16.4460    -3.6070   -17.5990 ha         1 ZJF       0.129000
     29 H9          16.7570     2.4600   -13.8860 hc         1 ZJF       0.048950
     30 H10         15.1430     2.9450   -14.4230 hc         1 ZJF       0.048950
     31 H11         15.7820     0.5950   -12.4420 h1         1 ZJF       0.080700
     32 H12         13.0900     1.8990   -13.4020 hc         1 ZJF       0.048950
     33 H13         13.2570     0.7390   -12.0800 hc         1 ZJF       0.048950
     34 H14         14.1140    -1.6190   -18.9500 h5         1 ZJF       0.063100
     35 H15         12.3870    -4.8580   -18.3910 ha         1 ZJF       0.130000
     36 H16         17.3010    -5.6270   -18.7720 ha         1 ZJF       0.125000
     37 H17         12.1620    -6.7570   -19.5050 ho         1 ZJF       0.469000
@<TRIPOS>BOND
     1     1     5 1   
     2     1    12 1   
     3     1    21 1   
     4     2     6 1   
     5     2    16 2   
     6     3     4 1   
     7     3    13 1   
     8     3    22 1   
     9     3    23 1   
    10     4    11 1   
    11     4    24 1   
    12     4    25 1   
    13     5     6 1   
    14     5    14 2   
    15     6     7 2   
    16     7    15 1   
    17     7    26 1   
    18     8    10 ar  
    19     8    15 1   
    20     8    17 ar  
    21     9    18 ar  
    22     9    19 ar  
    23     9    27 1   
    24    10    19 ar  
    25    10    28 1   
    26    11    12 1   
    27    11    29 1   
    28    11    30 1   
    29    12    13 1   
    30    12    31 1   
    31    13    32 1   
    32    13    33 1   
    33    15    16 1   
    34    16    34 1   
    35    17    18 ar  
    36    17    35 1   
    37    18    20 1   
    38    19    36 1   
    39    20    37 1   
@<TRIPOS>SUBSTRUCTURE
     1 ZJF         1 TEMP              0 ****  ****    0 ROOT
