@<TRIPOS>MOLECULE
ZJF
   37    39     1     0     0
SMALL
abcg2


@<TRIPOS>ATOM
      1 N1          14.8700     0.3450   -14.2620 ns         1 ZJF      -0.484900
      2 N3          15.0400    -0.8350   -16.7850 nc         1 ZJF      -0.671000
      3 C4          13.7700     2.9070   -11.7840 c5         1 ZJF      -0.078400
      4 C5          15.2330     3.3430   -12.0660 c5         1 ZJF      -0.078400
      5 C6          14.6550    -0.9830   -14.3040 c          1 ZJF       0.540600
      6 C7          14.7700    -1.5790   -15.6510 cc         1 ZJF       0.172500
      7 C8          14.6410    -2.9030   -15.9810 cd         1 ZJF      -0.133000
      8 C10         14.8080    -4.1420   -18.1470 ca         1 ZJF       0.043800
      9 C13         14.7250    -6.4260   -19.7250 ca         1 ZJF      -0.142000
     10 C15         15.6730    -4.2560   -19.2300 ca         1 ZJF      -0.156000
     11 C1          15.8160     2.2840   -13.0330 c5         1 ZJF      -0.094900
     12 C2          14.7800     1.1510   -13.0630 c5         1 ZJF       0.105700
     13 C3          13.4450     1.8830   -12.8750 c5         1 ZJF      -0.094900
     14 O1          14.3890    -1.6730   -13.3120 o          1 ZJF      -0.625100
     15 N2          14.8430    -2.9730   -17.3390 na         1 ZJF      -0.087300
     16 C9          15.0780    -1.6930   -17.7730 cd         1 ZJF       0.413400
     17 C11         13.9020    -5.1530   -17.8400 ca         1 ZJF      -0.212000
     18 C12         13.8720    -6.3000   -18.6290 ca         1 ZJF       0.156100
     19 C14         15.6140    -5.4020   -20.0160 ca         1 ZJF      -0.057000
     20 O2          13.0140    -7.3260   -18.3770 oh         1 ZJF      -0.530100
     21 H1          15.0470     0.8050   -15.1440 hn         1 ZJF       0.332500
     22 H2          13.0770     3.7490   -11.7790 hc         1 ZJF       0.043450
     23 H3          13.7060     2.4280   -10.8040 hc         1 ZJF       0.043450
     24 H4          15.8080     3.3980   -11.1410 hc         1 ZJF       0.043450
     25 H5          15.2640     4.3330   -12.5210 hc         1 ZJF       0.043450
     26 H6          14.4510    -3.7750   -15.3810 h4         1 ZJF       0.176000
     27 H7          14.6830    -7.3210   -20.3310 ha         1 ZJF       0.138000
     28 H8          16.3920    -3.4770   -19.4430 ha         1 ZJF       0.129000
     29 H9          16.8010     1.9270   -12.7330 hc         1 ZJF       0.048950
     30 H10         15.9100     2.7000   -14.0400 hc         1 ZJF       0.048950
     31 H11         14.9360     0.4800   -12.2170 h1         1 ZJF       0.080700
     32 H12         13.1820     2.3840   -13.8120 hc         1 ZJF       0.048950
     33 H13         12.6300     1.2060   -12.6130 hc         1 ZJF       0.048950
     34 H14         15.2450    -1.4640   -18.8130 h5         1 ZJF       0.063100
     35 H15         13.2170    -5.0470   -17.0090 ha         1 ZJF       0.130000
     36 H16         16.2830    -5.5020   -20.8610 ha         1 ZJF       0.125000
     37 H17         12.4790    -7.1310   -17.5950 ho         1 ZJF       0.469000
@<TRIPOS>BOND
     1     1     5 1   
     2     1    12 1   
     3     1    21 1   
     4     2     6 1   
     5     2    16 2   
     6     3     4 1   
     7     3    13 1   
     8     3    22 1   
     9     3    23 1   
    10     4    11 1   
    11     4    24 1   
    12     4    25 1   
    13     5     6 1   
    14     5    14 2   
    15     6     7 2   
    16     7    15 1   
    17     7    26 1   
    18     8    10 ar  
    19     8    15 1   
    20     8    17 ar  
    21     9    18 ar  
    22     9    19 ar  
    23     9    27 1   
    24    10    19 ar  
    25    10    28 1   
    26    11    12 1   
    27    11    29 1   
    28    11    30 1   
    29    12    13 1   
    30    12    31 1   
    31    13    32 1   
    32    13    33 1   
    33    15    16 1   
    34    16    34 1   
    35    17    18 ar  
    36    17    35 1   
    37    18    20 1   
    38    19    36 1   
    39    20    37 1   
@<TRIPOS>SUBSTRUCTURE
     1 ZJF         1 TEMP              0 ****  ****    0 ROOT
