@<TRIPOS>MOLECULE
ZJG
  101   107     1     0     0
SMALL
abcg2


@<TRIPOS>ATOM
      1 C10        -29.4290    -0.7420    -5.7160 c          1 ZJG       0.603100
      2 C17        -32.6680     1.9360    -2.9410 cy         1 ZJG       0.172300
      3 C21        -26.9580    -1.2040    -1.1900 ca         1 ZJG       0.555300
      4 C24        -25.6630    -0.7520     1.0880 ca         1 ZJG       0.166000
      5 C26        -27.4020    -0.1770    -0.2830 ca         1 ZJG       0.322300
      6 C28        -23.4340    -2.3440     1.6550 ca         1 ZJG       0.164100
      7 C01        -27.1040    -0.7770    -5.0730 c5         1 ZJG       0.031700
      8 C02        -26.2850    -1.7430    -4.2100 c5         1 ZJG      -0.109400
      9 C03        -27.3240    -2.3250    -3.2630 c5         1 ZJG       0.164300
     10 C04        -28.5310    -2.5030    -4.1610 c5         1 ZJG       0.106000
     11 C06        -26.6120    -0.7190    -6.5130 c          1 ZJG       0.591100
     12 C09        -25.7740     0.6960    -8.2750 cx         1 ZJG      -0.068600
     13 C11        -30.8100    -1.4020    -5.7800 c3         1 ZJG       0.066700
     14 C18        -31.0650    -1.8870    -7.2100 c3         1 ZJG      -0.089400
     15 C19        -30.1320    -3.0150    -7.6410 c3         1 ZJG      -0.079400
     16 C23        -25.2410    -1.7440     0.1840 ca         1 ZJG       0.307000
     17 C27        -24.1180    -2.5390     0.4740 ca         1 ZJG      -0.203000
     18 C29        -23.8540    -1.3430     2.5650 ca         1 ZJG      -0.141000
     19 C30        -24.9430    -0.5670     2.2850 ca         1 ZJG      -0.029000
     20 C32        -21.8870    -4.0740     1.1850 c3         1 ZJG       0.145900
     21 C33        -28.5970     0.6580    -0.6020 c3         1 ZJG      -0.139400
     22 C34        -24.5560     0.0850    -8.8840 c          1 ZJG       0.677100
     23 C40        -22.1270    -2.4500    -7.0820 cx         1 ZJG      -0.399000
     24 C41        -20.6980    -2.6700    -6.6790 cx         1 ZJG      -0.078400
     25 C42        -21.5770    -1.8000    -5.8450 cx         1 ZJG      -0.078400
     26 C43        -23.1310    -3.5710    -6.9970 c3         1 ZJG      -0.043100
     27 C44        -27.0300     0.8640    -9.1410 cx         1 ZJG      -0.035500
     28 C45        -27.1830     0.3200   -10.5050 c2         1 ZJG      -0.191200
     29 C46        -28.1510    -0.5200   -10.8770 c2         1 ZJG      -0.190200
     30 C47        -29.2190    -1.1230   -10.0200 c3         1 ZJG      -0.048200
     31 C48        -29.1340    -2.6520    -9.9890 c3         1 ZJG      -0.074400
     32 C49        -26.1840     2.0400    -8.8100 cx         1 ZJG      -0.095400
     33 C50        -30.2030    -3.3400    -9.1400 c3         1 ZJG      -0.066400
     34 C51        -31.5180     2.9150    -2.6830 cy         1 ZJG      -0.100400
     35 C52        -32.5800     3.9150    -2.1810 cy         1 ZJG      -0.094400
     36 C53        -33.6420     3.1120    -2.9600 cy         1 ZJG      -0.100400
     37 N05        -28.4410    -1.3530    -5.0480 n          1 ZJG      -0.384800
     38 N08        -26.0120     0.4320    -6.8950 ns         1 ZJG      -0.473900
     39 N13        -31.8180    -0.4320    -5.4210 ns         1 ZJG      -0.488900
     40 N22        -25.9220    -1.9440    -0.9740 nb         1 ZJG      -0.758000
     41 N25        -26.7470     0.0190     0.8200 nb         1 ZJG      -0.616000
     42 N35        -23.7990    -0.6570    -8.0160 ns         1 ZJG      -0.565300
     43 O07        -26.7300    -1.6710    -7.2600 o          1 ZJG      -0.570100
     44 O12        -29.2300     0.3060    -6.3170 o          1 ZJG      -0.622100
     45 O15        -32.6680     1.1670    -4.1370 os         1 ZJG      -0.443100
     46 O16        -30.9590    -0.0810    -3.3600 o          1 ZJG      -0.551000
     47 O20        -27.7030    -1.3590    -2.2800 os         1 ZJG      -0.444300
     48 O31        -22.3600    -3.0500     2.0380 os         1 ZJG      -0.335100
     49 O36        -24.2500     0.2330   -10.0460 o          1 ZJG      -0.547100
     50 O38        -22.6270    -2.2010    -9.6630 o          1 ZJG      -0.515000
     51 O39        -21.3090    -0.3950    -8.5520 o          1 ZJG      -0.515000
     52 S37        -22.3580    -1.3970    -8.4850 s6         1 ZJG       1.250800
     53 H171       -32.8390     1.2880    -2.0780 h1         1 ZJG       0.066700
     54 H011       -27.1150     0.2230    -4.6290 h1         1 ZJG       0.077700
     55 H021       -25.8760    -2.5550    -4.8150 hc         1 ZJG       0.074700
     56 H022       -25.4560    -1.2520    -3.7020 hc         1 ZJG       0.074700
     57 H031       -27.0090    -3.2550    -2.7880 h1         1 ZJG       0.090700
     58 H042       -29.4610    -2.5120    -3.5950 h1         1 ZJG       0.073700
     59 H041       -28.4500    -3.4450    -4.7100 h1         1 ZJG       0.073700
     60 H111       -30.8750    -2.2600    -5.1080 h1         1 ZJG       0.071700
     61 H182       -30.9890    -1.0320    -7.8860 hc         1 ZJG       0.057200
     62 H181       -32.0990    -2.2380    -7.2690 hc         1 ZJG       0.057200
     63 H192       -30.3860    -3.9050    -7.0590 hc         1 ZJG       0.049700
     64 H191       -29.0950    -2.7800    -7.3850 hc         1 ZJG       0.049700
     65 H271       -23.8300    -3.2920    -0.2470 ha         1 ZJG       0.133000
     66 H291       -23.3020    -1.2060     3.4850 ha         1 ZJG       0.134000
     67 H301       -25.2700     0.1960     2.9790 ha         1 ZJG       0.135000
     68 H321       -21.0220    -4.5110     1.6760 h1         1 ZJG       0.044700
     69 H323       -22.6390    -4.8520     1.0320 h1         1 ZJG       0.044700
     70 H322       -21.5820    -3.6830     0.2110 h1         1 ZJG       0.044700
     71 H332       -28.7640     1.3790     0.1950 hc         1 ZJG       0.062367
     72 H333       -28.4650     1.2020    -1.5390 hc         1 ZJG       0.062367
     73 H331       -29.4940     0.0490    -0.7140 hc         1 ZJG       0.062367
     74 H412       -20.4660    -3.6670    -6.3310 hc         1 ZJG       0.088200
     75 H411       -19.9070    -2.1970    -7.2460 hc         1 ZJG       0.088200
     76 H421       -21.9600    -2.1840    -4.9080 hc         1 ZJG       0.088200
     77 H422       -21.3840    -0.7350    -5.8480 hc         1 ZJG       0.088200
     78 H433       -22.9290    -4.1630    -6.1050 hc         1 ZJG       0.054033
     79 H431       -24.1530    -3.1990    -6.9200 hc         1 ZJG       0.054033
     80 H432       -23.0630    -4.2320    -7.8590 hc         1 ZJG       0.054033
     81 H441       -27.9140     0.7800    -8.5200 hc         1 ZJG       0.102700
     82 H451       -26.4770     0.6550   -11.2540 ha         1 ZJG       0.191000
     83 H461       -28.1700    -0.8220   -11.9210 ha         1 ZJG       0.168000
     84 H471       -29.1670    -0.7320    -9.0040 hc         1 ZJG       0.046200
     85 H472       -30.2010    -0.8360   -10.4140 hc         1 ZJG       0.046200
     86 H482       -29.1960    -3.0300   -11.0140 hc         1 ZJG       0.048200
     87 H481       -28.1460    -2.9410    -9.6170 hc         1 ZJG       0.048200
     88 H491       -25.5580     2.4600    -9.5870 hc         1 ZJG       0.087700
     89 H492       -26.5570     2.7570    -8.0900 hc         1 ZJG       0.087700
     90 H501       -31.1980    -3.0980    -9.5300 hc         1 ZJG       0.036700
     91 H502       -30.0870    -4.4180    -9.2750 hc         1 ZJG       0.036700
     92 H511       -31.0670     3.2510    -3.6180 hc         1 ZJG       0.063950
     93 H521       -32.4490     4.9610    -2.4530 hc         1 ZJG       0.055200
     94 H522       -32.7260     3.8490    -1.1030 hc         1 ZJG       0.055200
     95 H532       -33.7650     3.5040    -3.9710 hc         1 ZJG       0.063950
     96 H531       -34.6240     2.9670    -2.5110 hc         1 ZJG       0.063950
     97 H081       -25.9860     1.2100    -6.2510 hn         1 ZJG       0.323500
     98 H131       -32.4190    -0.0690    -6.1450 hn         1 ZJG       0.336500
     99 H351       -23.9620    -0.5740    -7.0180 hn         1 ZJG       0.338500
    100 C14        -31.7540     0.2020    -4.2350 c          1 ZJG       0.642100
    101 H512       -30.7300     2.6050    -1.9980 hc         1 ZJG       0.063950
@<TRIPOS>BOND
     1     1    13 1   
     2     1    37 1   
     3     1    44 2   
     4     2    34 1   
     5     2    36 1   
     6     2    45 1   
     7     2    53 1   
     8     3     5 ar  
     9     3    40 ar  
    10     3    47 1   
    11     4    16 ar  
    12     4    19 ar  
    13     4    41 ar  
    14     5    21 1   
    15     5    41 ar  
    16     6    17 ar  
    17     6    18 ar  
    18     6    48 1   
    19     7     8 1   
    20     7    11 1   
    21     7    37 1   
    22     7    54 1   
    23     8     9 1   
    24     8    55 1   
    25     8    56 1   
    26     9    10 1   
    27     9    47 1   
    28     9    57 1   
    29    10    37 1   
    30    10    58 1   
    31    10    59 1   
    32    11    38 1   
    33    11    43 2   
    34    12    22 1   
    35    12    27 1   
    36    12    32 1   
    37    12    38 1   
    38    13    14 1   
    39    13    39 1   
    40    13    60 1   
    41    14    15 1   
    42    14    61 1   
    43    14    62 1   
    44    15    33 1   
    45    15    63 1   
    46    15    64 1   
    47    16    17 ar  
    48    16    40 ar  
    49    17    65 1   
    50    18    19 ar  
    51    18    66 1   
    52    19    67 1   
    53    20    48 1   
    54    20    68 1   
    55    20    69 1   
    56    20    70 1   
    57    21    71 1   
    58    21    72 1   
    59    21    73 1   
    60    22    42 1   
    61    22    49 2   
    62    23    24 1   
    63    23    25 1   
    64    23    26 1   
    65    23    52 1   
    66    24    25 1   
    67    24    74 1   
    68    24    75 1   
    69    25    76 1   
    70    25    77 1   
    71    26    78 1   
    72    26    79 1   
    73    26    80 1   
    74    27    28 1   
    75    27    32 1   
    76    27    81 1   
    77    28    29 2   
    78    28    82 1   
    79    29    30 1   
    80    29    83 1   
    81    30    31 1   
    82    30    84 1   
    83    30    85 1   
    84    31    33 1   
    85    31    86 1   
    86    31    87 1   
    87    32    88 1   
    88    32    89 1   
    89    33    90 1   
    90    33    91 1   
    91    34    35 1   
    92    34    92 1   
    93    34   101 1   
    94    35    36 1   
    95    35    93 1   
    96    35    94 1   
    97    36    95 1   
    98    36    96 1   
    99    38    97 1   
   100    39    98 1   
   101    39   100 1   
   102    42    52 1   
   103    42    99 1   
   104    45   100 1   
   105    46   100 2   
   106    50    52 2   
   107    51    52 2   
@<TRIPOS>SUBSTRUCTURE
     1 ZJG         1 TEMP              0 ****  ****    0 ROOT
