@<TRIPOS>MOLECULE
ZJG
  101   107     1     0     0
SMALL
No Charge or Current Charge


@<TRIPOS>ATOM
      1 C10        -29.3360    -0.1600    -5.3140 c          1 ZJG       0.603100
      2 C17        -34.9330     1.5230    -4.0620 cy         1 ZJG       0.172300
      3 C21        -26.0040    -0.7850    -1.2870 ca         1 ZJG       0.555300
      4 C24        -23.7380    -0.5320     0.2120 ca         1 ZJG       0.166000
      5 C26        -25.4090     0.4900    -1.0130 ca         1 ZJG       0.322300
      6 C28        -22.5760    -2.8990     1.2530 ca         1 ZJG       0.164100
      7 C01        -26.8980    -0.7080    -4.9260 c5         1 ZJG       0.031700
      8 C02        -26.2460    -1.8360    -4.0650 c5         1 ZJG      -0.109400
      9 C03        -27.2530    -2.0000    -2.8900 c5         1 ZJG       0.164300
     10 C04        -28.6200    -1.9330    -3.6290 c5         1 ZJG       0.106000
     11 C06        -26.4580    -0.8880    -6.4110 c          1 ZJG       0.591100
     12 C09        -25.5270     0.4460    -8.2920 cx         1 ZJG      -0.068600
     13 C11        -30.8040    -0.6860    -5.4030 c3         1 ZJG       0.066700
     14 C18        -31.1060    -1.2710    -6.8100 c3         1 ZJG      -0.089400
     15 C19        -30.2560    -2.5060    -7.2070 c3         1 ZJG      -0.079400
     16 C23        -24.3420    -1.8110    -0.0420 ca         1 ZJG       0.307000
     17 C27        -23.7530    -2.9730     0.4830 ca         1 ZJG      -0.203000
     18 C29        -21.9870    -1.6520     1.5000 ca         1 ZJG      -0.141000
     19 C30        -22.5630    -0.4800     0.9840 ca         1 ZJG      -0.029000
     20 C32        -22.4850    -5.3440     1.5920 c3         1 ZJG       0.145900
     21 C33        -26.0030     1.7850    -1.5500 c3         1 ZJG      -0.139400
     22 C34        -24.5840    -0.5760    -8.9580 c          1 ZJG       0.677100
     23 C40        -21.7320    -2.4260    -6.7250 cx         1 ZJG      -0.399000
     24 C41        -20.2740    -2.8190    -6.5620 cx         1 ZJG      -0.078400
     25 C42        -20.7420    -1.4530    -6.1080 cx         1 ZJG      -0.078400
     26 C43        -22.7980    -3.0860    -5.8410 c3         1 ZJG      -0.043100
     27 C44        -26.6780     1.1010    -9.0450 cx         1 ZJG      -0.035500
     28 C45        -27.1000     0.6240   -10.3950 c2         1 ZJG      -0.191200
     29 C46        -28.1690    -0.1550   -10.6510 c2         1 ZJG      -0.190200
     30 C47        -29.1740    -0.6970    -9.6440 c3         1 ZJG      -0.048200
     31 C48        -29.2150    -2.2420    -9.6090 c3         1 ZJG      -0.074400
     32 C49        -25.3970     1.8650    -8.8120 cx         1 ZJG      -0.095400
     33 C50        -30.3240    -2.8680    -8.7150 c3         1 ZJG      -0.066400
     34 C51        -35.1270     1.2220    -2.5370 cy         1 ZJG      -0.100400
     35 C52        -36.3330     2.2180    -2.6180 cy         1 ZJG      -0.094400
     36 C53        -35.5050     2.9400    -3.7340 cy         1 ZJG      -0.100400
     37 N05        -28.3460    -0.9800    -4.7320 n          1 ZJG      -0.384800
     38 N08        -25.8260     0.2480    -6.8810 ns         1 ZJG      -0.473900
     39 N13        -31.7370     0.4190    -5.1110 ns         1 ZJG      -0.488900
     40 N22        -25.4740    -1.9340    -0.7810 nb         1 ZJG      -0.758000
     41 N25        -24.2740     0.6200    -0.2720 nb         1 ZJG      -0.616000
     42 N35        -23.5580    -0.9370    -8.1510 ns         1 ZJG      -0.565300
     43 O07        -26.6200    -1.8850    -7.1010 o          1 ZJG      -0.570100
     44 O12        -29.0220     0.9170    -5.8110 o          1 ZJG      -0.622100
     45 O15        -33.5870     1.5040    -4.5490 os         1 ZJG      -0.443100
     46 O16        -33.5650    -0.8050    -4.4620 o          1 ZJG      -0.551000
     47 O20        -27.1810    -0.8240    -2.0250 os         1 ZJG      -0.444300
     48 O31        -21.9650    -4.0160     1.7860 os         1 ZJG      -0.335100
     49 O36        -24.7100    -1.0060   -10.0950 o          1 ZJG      -0.547100
     50 O38        -23.0340    -3.2940    -8.9550 o          1 ZJG      -0.515000
     51 O39        -21.3260    -1.4300    -9.2220 o          1 ZJG      -0.515000
     52 S37        -22.3890    -2.0790    -8.4470 s6         1 ZJG       1.250800
     53 H171       -35.5900     0.9360    -4.7170 h1         1 ZJG       0.066700
     54 H011       -26.6340     0.2920    -4.5590 h1         1 ZJG       0.077700
     55 H021       -26.1760    -2.7800    -4.6200 hc         1 ZJG       0.074700
     56 H022       -25.2280    -1.5880    -3.7460 hc         1 ZJG       0.074700
     57 H031       -27.1450    -2.9330    -2.3180 h1         1 ZJG       0.090700
     58 H042       -29.4190    -1.5840    -2.9610 h1         1 ZJG       0.073700
     59 H041       -28.9050    -2.9150    -4.0280 h1         1 ZJG       0.073700
     60 H111       -30.9520    -1.4710    -4.6520 h1         1 ZJG       0.071700
     61 H182       -30.9760    -0.4720    -7.5470 hc         1 ZJG       0.057200
     62 H181       -32.1640    -1.5560    -6.8600 hc         1 ZJG       0.057200
     63 H192       -30.6110    -3.3640    -6.6210 hc         1 ZJG       0.049700
     64 H191       -29.2080    -2.3640    -6.9270 hc         1 ZJG       0.049700
     65 H271       -24.2290    -3.9260     0.2770 ha         1 ZJG       0.133000
     66 H291       -21.0790    -1.5930     2.0950 ha         1 ZJG       0.134000
     67 H301       -22.0960     0.4810     1.1840 ha         1 ZJG       0.135000
     68 H321       -21.8470    -6.0790     2.0990 h1         1 ZJG       0.044700
     69 H323       -23.4970    -5.4310     2.0060 h1         1 ZJG       0.044700
     70 H322       -22.5150    -5.5990     0.5250 h1         1 ZJG       0.044700
     71 H332       -25.4790     2.6680    -1.1650 hc         1 ZJG       0.062367
     72 H333       -25.9450     1.8130    -2.6440 hc         1 ZJG       0.062367
     73 H331       -27.0580     1.8760    -1.2670 hc         1 ZJG       0.062367
     74 H412       -20.0180    -3.5450    -5.7930 hc         1 ZJG       0.088200
     75 H411       -19.6440    -2.8660    -7.4480 hc         1 ZJG       0.088200
     76 H421       -20.7970    -1.2710    -5.0360 hc         1 ZJG       0.088200
     77 H422       -20.4210    -0.5920    -6.6920 hc         1 ZJG       0.088200
     78 H433       -22.4190    -3.2750    -4.8290 hc         1 ZJG       0.054033
     79 H431       -23.6880    -2.4520    -5.7420 hc         1 ZJG       0.054033
     80 H432       -23.1180    -4.0500    -6.2540 hc         1 ZJG       0.054033
     81 H441       -27.5190     1.4400    -8.4420 hc         1 ZJG       0.102700
     82 H451       -26.4640     0.9480   -11.2220 ha         1 ZJG       0.191000
     83 H461       -28.3820    -0.4460   -11.6820 ha         1 ZJG       0.168000
     84 H471       -28.9460    -0.3340    -8.6370 hc         1 ZJG       0.046200
     85 H472       -30.1730    -0.3200    -9.8940 hc         1 ZJG       0.046200
     86 H482       -29.3560    -2.6110   -10.6320 hc         1 ZJG       0.048200
     87 H481       -28.2370    -2.6150    -9.2810 hc         1 ZJG       0.048200
     88 H491       -24.7500     2.0400    -9.6680 hc         1 ZJG       0.087700
     89 H492       -25.4160     2.6770    -8.0890 hc         1 ZJG       0.087700
     90 H501       -31.3120    -2.6080    -9.1140 hc         1 ZJG       0.036700
     91 H502       -30.2400    -3.9580    -8.8050 hc         1 ZJG       0.036700
     92 H511       -34.3010     1.5530    -1.8980 hc         1 ZJG       0.063950
     93 H521       -36.5340     2.8030    -1.7140 hc         1 ZJG       0.055200
     94 H522       -37.2730     1.7710    -2.9630 hc         1 ZJG       0.055200
     95 H532       -34.7620     3.6560    -3.3620 hc         1 ZJG       0.063950
     96 H531       -36.0840     3.4170    -4.5310 hc         1 ZJG       0.063950
     97 H081       -25.7480     1.0290    -6.2380 hn         1 ZJG       0.323500
     98 H131       -31.4260     1.3730    -5.2540 hn         1 ZJG       0.336500
     99 H351       -23.4900    -0.5390    -7.2320 hn         1 ZJG       0.338500
    100 C14        -33.0240     0.2680    -4.6830 c          1 ZJG       0.642100
    101 H512       -35.3760     0.1860    -2.2830 hc         1 ZJG       0.063950
@<TRIPOS>BOND
     1     1    13 1   
     2     1    37 1   
     3     1    44 2   
     4     2    34 1   
     5     2    36 1   
     6     2    45 1   
     7     2    53 1   
     8     3     5 ar  
     9     3    40 ar  
    10     3    47 1   
    11     4    16 ar  
    12     4    19 ar  
    13     4    41 ar  
    14     5    21 1   
    15     5    41 ar  
    16     6    17 ar  
    17     6    18 ar  
    18     6    48 1   
    19     7     8 1   
    20     7    11 1   
    21     7    37 1   
    22     7    54 1   
    23     8     9 1   
    24     8    55 1   
    25     8    56 1   
    26     9    10 1   
    27     9    47 1   
    28     9    57 1   
    29    10    37 1   
    30    10    58 1   
    31    10    59 1   
    32    11    38 1   
    33    11    43 2   
    34    12    22 1   
    35    12    27 1   
    36    12    32 1   
    37    12    38 1   
    38    13    14 1   
    39    13    39 1   
    40    13    60 1   
    41    14    15 1   
    42    14    61 1   
    43    14    62 1   
    44    15    33 1   
    45    15    63 1   
    46    15    64 1   
    47    16    17 ar  
    48    16    40 ar  
    49    17    65 1   
    50    18    19 ar  
    51    18    66 1   
    52    19    67 1   
    53    20    48 1   
    54    20    68 1   
    55    20    69 1   
    56    20    70 1   
    57    21    71 1   
    58    21    72 1   
    59    21    73 1   
    60    22    42 1   
    61    22    49 2   
    62    23    24 1   
    63    23    25 1   
    64    23    26 1   
    65    23    52 1   
    66    24    25 1   
    67    24    74 1   
    68    24    75 1   
    69    25    76 1   
    70    25    77 1   
    71    26    78 1   
    72    26    79 1   
    73    26    80 1   
    74    27    28 1   
    75    27    32 1   
    76    27    81 1   
    77    28    29 2   
    78    28    82 1   
    79    29    30 1   
    80    29    83 1   
    81    30    31 1   
    82    30    84 1   
    83    30    85 1   
    84    31    33 1   
    85    31    86 1   
    86    31    87 1   
    87    32    88 1   
    88    32    89 1   
    89    33    90 1   
    90    33    91 1   
    91    34    35 1   
    92    34    92 1   
    93    34   101 1   
    94    35    36 1   
    95    35    93 1   
    96    35    94 1   
    97    36    95 1   
    98    36    96 1   
    99    38    97 1   
   100    39    98 1   
   101    39   100 1   
   102    42    52 1   
   103    42    99 1   
   104    45   100 1   
   105    46   100 2   
   106    50    52 2   
   107    51    52 2   
@<TRIPOS>SUBSTRUCTURE
     1 ZJG         1 TEMP              0 ****  ****    0 ROOT
