@<TRIPOS>MOLECULE
ZJI
   36    38     1     0     0
SMALL
No Charge or Current Charge


@<TRIPOS>ATOM
      1 N1         -16.2810    17.7720    26.1480 ns         1 ZJI      -0.494900
      2 N3         -19.5110    13.7530    25.8260 n          1 ZJI      -0.408800
      3 C4         -13.9930    18.7680    26.5030 cx         1 ZJI      -0.131900
      4 C5         -17.8980    15.6440    25.2520 c6         1 ZJI       0.085500
      5 C6         -18.4090    14.2140    24.9420 c6         1 ZJI       0.091500
      6 C7         -19.1440    13.9160    27.2600 c6         1 ZJI       0.091500
      7 C8         -18.7060    15.3530    27.6250 c6         1 ZJI       0.085500
      8 C10        -21.5880    12.4000    26.1900 cc         1 ZJI       0.062500
      9 C13        -23.2500    12.5680    27.6530 cc         1 ZJI       0.145900
     10 C1         -16.9990    17.1140    27.1190 c          1 ZJI       0.649100
     11 C11        -22.4640    11.3770    25.9300 cd         1 ZJI      -0.105000
     12 C12        -23.5120    11.4790    26.8670 cd         1 ZJI      -0.195000
     13 C2         -15.4860    18.9470    26.3780 cx         1 ZJI       0.053700
     14 C3         -14.5760    19.4030    25.2640 cx         1 ZJI      -0.131900
     15 C9         -20.3640    12.7070    25.3800 c          1 ZJI       0.544600
     16 N2         -17.7150    15.9740    26.7000 n          1 ZJI      -0.424800
     17 O1         -17.0110    17.4980    28.2790 o          1 ZJI      -0.633100
     18 O2         -20.1140    12.1070    24.3390 o          1 ZJI      -0.595100
     19 O3         -22.0740    13.1560    27.2430 os         1 ZJI      -0.248000
     20 H1         -16.3300    17.3860    25.2160 hn         1 ZJI       0.309500
     21 H6         -13.5910    17.7620    26.4180 hc         1 ZJI       0.077700
     22 H5         -13.4670    19.4110    27.2040 hc         1 ZJI       0.077700
     23 H7         -18.6150    16.3630    24.8320 h1         1 ZJI       0.056700
     24 H8         -16.9510    15.7770    24.7110 h1         1 ZJI       0.056700
     25 H10        -18.7300    14.1820    23.8910 h1         1 ZJI       0.066200
     26 H9         -17.5690    13.5110    25.0420 h1         1 ZJI       0.066200
     27 H11        -19.9420    13.6100    27.9420 h1         1 ZJI       0.066200
     28 H12        -18.2990    13.2430    27.4670 h1         1 ZJI       0.066200
     29 H14        -19.5990    15.9920    27.6470 h1         1 ZJI       0.056700
     30 H13        -18.2980    15.3360    28.6460 h1         1 ZJI       0.056700
     31 H17        -23.7820    13.0140    28.4820 h4         1 ZJI       0.055100
     32 H15        -22.3640    10.6340    25.1440 ha         1 ZJI       0.156000
     33 H16        -24.3750    10.8270    26.9500 ha         1 ZJI       0.147000
     34 H2         -15.9690    19.7100    26.9920 h1         1 ZJI       0.084700
     35 H4         -14.5600    18.8260    24.3430 hc         1 ZJI       0.077700
     36 H3         -14.4410    20.4740    25.1320 hc         1 ZJI       0.077700
@<TRIPOS>BOND
     1     1    10 1   
     2     1    13 1   
     3     1    20 1   
     4     2     5 1   
     5     2     6 1   
     6     2    15 1   
     7     3    13 1   
     8     3    14 1   
     9     3    21 1   
    10     3    22 1   
    11     4     5 1   
    12     4    16 1   
    13     4    23 1   
    14     4    24 1   
    15     5    25 1   
    16     5    26 1   
    17     6     7 1   
    18     6    27 1   
    19     6    28 1   
    20     7    16 1   
    21     7    29 1   
    22     7    30 1   
    23     8    11 2   
    24     8    15 1   
    25     8    19 1   
    26     9    12 2   
    27     9    19 1   
    28     9    31 1   
    29    10    16 1   
    30    10    17 2   
    31    11    12 1   
    32    11    32 1   
    33    12    33 1   
    34    13    14 1   
    35    13    34 1   
    36    14    35 1   
    37    14    36 1   
    38    15    18 2   
@<TRIPOS>SUBSTRUCTURE
     1 ZJI         1 TEMP              0 ****  ****    0 ROOT
