@<TRIPOS>MOLECULE
ZJI
   36    38     1     0     0
SMALL
abcg2


@<TRIPOS>ATOM
      1 N1         -16.4270    17.7090    26.0200 ns         1 ZJI      -0.494900
      2 N3         -19.3180    13.6220    25.7790 n          1 ZJI      -0.408800
      3 C4         -14.2000    18.6420    26.7720 cx         1 ZJI      -0.131900
      4 C5         -18.0500    15.6080    25.1190 c6         1 ZJI       0.085500
      5 C6         -18.2770    14.1160    24.8900 c6         1 ZJI       0.091500
      6 C7         -18.9970    13.8500    27.1860 c6         1 ZJI       0.091500
      7 C8         -18.8000    15.3330    27.4450 c6         1 ZJI       0.085500
      8 C10        -21.4700    12.5230    26.1500 cc         1 ZJI       0.062500
      9 C13        -23.0120    12.8690    27.6790 cc         1 ZJI       0.145900
     10 C1         -17.0460    16.9490    26.9730 c          1 ZJI       0.649100
     11 C11        -22.3190    11.4570    26.1010 cd         1 ZJI      -0.105000
     12 C12        -23.3130    11.6770    27.1000 cd         1 ZJI      -0.195000
     13 C2         -15.6390    18.8460    26.3950 cx         1 ZJI       0.053700
     14 C3         -14.5580    19.2670    25.4470 cx         1 ZJI      -0.131900
     15 C9         -20.3130    12.8430    25.2900 c          1 ZJI       0.544600
     16 N2         -17.8050    15.8890    26.5290 n          1 ZJI      -0.424800
     17 O1         -16.9000    17.1840    28.1770 o          1 ZJI      -0.633100
     18 O2         -20.3070    12.4050    24.1340 o          1 ZJI      -0.595100
     19 O3         -21.8940    13.4000    27.1160 os         1 ZJI      -0.248000
     20 H1         -16.7810    17.7010    25.0780 hn         1 ZJI       0.309500
     21 H6         -13.8330    17.6250    26.7610 hc         1 ZJI       0.077700
     22 H5         -13.7890    19.2740    27.5470 hc         1 ZJI       0.077700
     23 H7         -18.9210    16.1690    24.7580 h1         1 ZJI       0.056700
     24 H8         -17.1830    15.8940    24.5270 h1         1 ZJI       0.056700
     25 H10        -18.5770    13.9430    23.8610 h1         1 ZJI       0.066200
     26 H9         -17.3480    13.5680    25.0790 h1         1 ZJI       0.066200
     27 H11        -19.7780    13.4610    27.8280 h1         1 ZJI       0.066200
     28 H12        -18.0690    13.3140    27.4090 h1         1 ZJI       0.066200
     29 H14        -19.7580    15.8530    27.3170 h1         1 ZJI       0.056700
     30 H13        -18.4550    15.4890    28.4620 h1         1 ZJI       0.056700
     31 H17        -23.4710    13.4530    28.4580 h4         1 ZJI       0.055100
     32 H15        -22.2370    10.6180    25.4310 ha         1 ZJI       0.156000
     33 H16        -24.1410    11.0350    27.3500 ha         1 ZJI       0.147000
     34 H2         -16.1770    19.6290    26.9180 h1         1 ZJI       0.084700
     35 H4         -14.4210    18.6660    24.5580 hc         1 ZJI       0.077700
     36 H3         -14.3940    20.3280    25.3130 hc         1 ZJI       0.077700
@<TRIPOS>BOND
     1     1    10 1   
     2     1    13 1   
     3     1    20 1   
     4     2     5 1   
     5     2     6 1   
     6     2    15 1   
     7     3    13 1   
     8     3    14 1   
     9     3    21 1   
    10     3    22 1   
    11     4     5 1   
    12     4    16 1   
    13     4    23 1   
    14     4    24 1   
    15     5    25 1   
    16     5    26 1   
    17     6     7 1   
    18     6    27 1   
    19     6    28 1   
    20     7    16 1   
    21     7    29 1   
    22     7    30 1   
    23     8    11 2   
    24     8    15 1   
    25     8    19 1   
    26     9    12 2   
    27     9    19 1   
    28     9    31 1   
    29    10    16 1   
    30    10    17 2   
    31    11    12 1   
    32    11    32 1   
    33    12    33 1   
    34    13    14 1   
    35    13    34 1   
    36    14    35 1   
    37    14    36 1   
    38    15    18 2   
@<TRIPOS>SUBSTRUCTURE
     1 ZJI         1 TEMP              0 ****  ****    0 ROOT
