@<TRIPOS>MOLECULE
ZJJ
  101   107     1     0     0
SMALL
No Charge or Current Charge


@<TRIPOS>ATOM
      1 C10        -15.7250    20.0120   -15.0180 c          1 ZJJ       0.604100
      2 C17        -21.3490    18.8890   -13.3400 cy         1 ZJJ       0.181300
      3 C21        -12.4810    15.9150   -15.6470 ca         1 ZJJ       0.553300
      4 C24        -10.2490    14.3660   -15.3930 ca         1 ZJJ       0.166000
      5 C26        -11.8950    15.6230   -14.3710 ca         1 ZJJ       0.321300
      6 C28         -9.1040    13.3080   -17.7610 ca         1 ZJJ       0.165100
      7 C01        -13.2950    19.5720   -15.5660 c5         1 ZJJ       0.031700
      8 C02        -12.6610    18.6990   -16.6950 c5         1 ZJJ      -0.109400
      9 C03        -13.6940    17.5470   -16.8610 c5         1 ZJJ       0.164300
     10 C04        -15.0440    18.3160   -16.7930 c5         1 ZJJ       0.106000
     11 C06        -12.8230    21.0480   -15.7420 c          1 ZJJ       0.591100
     12 C09        -11.8520    22.9060   -14.4050 cx         1 ZJJ      -0.068600
     13 C11        -17.1890    20.1340   -15.5450 c3         1 ZJJ       0.065700
     14 C18        -17.4600    21.5480   -16.1280 c3         1 ZJJ      -0.089400
     15 C19        -16.6000    21.9290   -17.3620 c3         1 ZJJ      -0.079400
     16 C23        -10.8440    14.6380   -16.6730 ca         1 ZJJ       0.306000
     17 C27        -10.2640    14.1040   -17.8350 ca         1 ZJJ      -0.204000
     18 C29         -8.5240    13.0440   -16.5140 ca         1 ZJJ      -0.140000
     19 C30         -9.0910    13.5680   -15.3410 ca         1 ZJJ      -0.029000
     20 C32         -9.0140    12.9750   -20.2070 c3         1 ZJJ       0.145900
     21 C33        -12.4810    16.1690   -13.0760 c3         1 ZJJ      -0.138400
     22 C34        -10.8950    23.5530   -15.4260 c          1 ZJJ       0.678100
     23 C40         -8.0860    21.2630   -17.2720 cx         1 ZJJ      -0.399000
     24 C41         -7.1080    20.6280   -16.2990 cx         1 ZJJ      -0.078400
     25 C42         -6.6320    21.0710   -17.6660 cx         1 ZJJ      -0.078400
     26 C43         -9.1700    20.3990   -17.9290 c3         1 ZJJ      -0.044100
     27 C44        -12.9860    23.6820   -13.7480 cx         1 ZJJ      -0.035500
     28 C45        -13.3790    25.0420   -14.2230 c2         1 ZJJ      -0.189200
     29 C46        -14.4400    25.3230   -15.0020 c2         1 ZJJ      -0.191200
     30 C47        -15.4670    24.3390   -15.5470 c3         1 ZJJ      -0.047200
     31 C48        -15.5070    24.3070   -17.0920 c3         1 ZJJ      -0.074400
     32 C49        -11.7110    23.4200   -12.9850 cx         1 ZJJ      -0.095400
     33 C50        -16.6340    23.4380   -17.7210 c3         1 ZJJ      -0.066400
     34 C51        -21.5740    17.3690   -13.6340 cy         1 ZJJ      -0.149900
     35 C52        -22.7670    17.4650   -12.6270 cy         1 ZJJ       0.168000
     36 C53        -21.9250    18.5790   -11.9230 cy         1 ZJJ      -0.149900
     37 F54        -23.0070    16.3510   -11.8900 f          1 ZJJ      -0.104500
     38 F55        -23.9490    17.8760   -13.1610 f          1 ZJJ      -0.104500
     39 N05        -14.7470    19.4110   -15.8390 n          1 ZJJ      -0.384800
     40 N08        -12.1820    21.5020   -14.6040 ns         1 ZJJ      -0.474900
     41 N13        -18.1300    19.8620   -14.4400 ns         1 ZJJ      -0.486900
     42 N22        -11.9590    15.4020   -16.7960 nb         1 ZJJ      -0.757000
     43 N25        -10.7770    14.8570   -14.2410 nb         1 ZJJ      -0.613000
     44 N35         -9.8840    22.7260   -15.7840 ns         1 ZJJ      -0.569300
     45 O07        -12.9680    21.7420   -16.7380 o          1 ZJJ      -0.570100
     46 O12        -15.4010    20.4990   -13.9390 o          1 ZJJ      -0.620100
     47 O15        -19.9920    19.3410   -13.3570 os         1 ZJJ      -0.443100
     48 O16        -19.9730    19.2600   -15.6650 o          1 ZJJ      -0.543000
     49 O20        -13.6420    16.6790   -15.6860 os         1 ZJJ      -0.445300
     50 O31         -8.5020    12.7650   -18.8780 os         1 ZJJ      -0.334100
     51 O36        -10.9990    24.6920   -15.8570 o          1 ZJJ      -0.543100
     52 O38         -7.6320    23.7530   -16.2780 o          1 ZJJ      -0.515500
     53 O39         -9.3450    23.5180   -18.1420 o          1 ZJJ      -0.515500
     54 S37         -8.7090    22.9980   -16.9260 s6         1 ZJJ       1.253800
     55 H171       -21.9890    19.5580   -13.9310 h1         1 ZJJ       0.081700
     56 H011       -13.0400    19.1980   -14.5650 h1         1 ZJJ       0.077700
     57 H022       -11.6500    18.3580   -16.4460 hc         1 ZJJ       0.076200
     58 H021       -12.5790    19.2530   -17.6370 hc         1 ZJJ       0.076200
     59 H031       -13.5970    16.9730   -17.7940 h1         1 ZJJ       0.091700
     60 H041       -15.3190    18.7230   -17.7760 h1         1 ZJJ       0.072700
     61 H042       -15.8580    17.6650   -16.4470 h1         1 ZJJ       0.072700
     62 H111       -17.3540    19.3880   -16.3310 h1         1 ZJJ       0.071700
     63 H182       -17.3150    22.2820   -15.3270 hc         1 ZJJ       0.057700
     64 H181       -18.5170    21.6220   -16.4130 hc         1 ZJJ       0.057700
     65 H191       -16.9670    21.3520   -18.2200 hc         1 ZJJ       0.049700
     66 H192       -15.5580    21.6260   -17.2190 hc         1 ZJJ       0.049700
     67 H271       -10.7320    14.3240   -18.7890 ha         1 ZJJ       0.133000
     68 H291        -7.6290    12.4290   -16.4550 ha         1 ZJJ       0.135000
     69 H301        -8.6310    13.3550   -14.3790 ha         1 ZJJ       0.136000
     70 H321        -8.3860    12.4570   -20.9420 h1         1 ZJJ       0.044700
     71 H323       -10.0350    12.5840   -20.2980 h1         1 ZJJ       0.044700
     72 H322        -9.0210    14.0430   -20.4580 h1         1 ZJJ       0.044700
     73 H333       -11.9650    15.7730   -12.1930 hc         1 ZJJ       0.061367
     74 H332       -12.4040    17.2620   -13.0460 hc         1 ZJJ       0.061367
     75 H331       -13.5410    15.9050   -12.9860 hc         1 ZJJ       0.061367
     76 H412        -7.1830    19.5580   -16.1150 hc         1 ZJJ       0.088200
     77 H411        -6.7750    21.2070   -15.4390 hc         1 ZJJ       0.088200
     78 H422        -6.3920    20.2970   -18.3910 hc         1 ZJJ       0.088200
     79 H421        -5.9860    21.9460   -17.7150 hc         1 ZJJ       0.088200
     80 H431       -10.0600    20.3170   -17.2940 hc         1 ZJJ       0.053700
     81 H433        -9.4830    20.8170   -18.8940 hc         1 ZJJ       0.053700
     82 H432        -8.8100    19.3790   -18.1180 hc         1 ZJJ       0.053700
     83 H441       -13.8400    23.0980   -13.4100 hc         1 ZJJ       0.100700
     84 H451       -12.7250    25.8550   -13.8970 ha         1 ZJJ       0.191000
     85 H461       -14.6310    26.3590   -15.2910 ha         1 ZJJ       0.168000
     86 H472       -16.4610    24.6100   -15.1710 hc         1 ZJJ       0.045700
     87 H471       -15.2610    23.3260   -15.1850 hc         1 ZJJ       0.045700
     88 H482       -14.5360    23.9580   -17.4640 hc         1 ZJJ       0.048200
     89 H481       -15.6250    25.3340   -17.4600 hc         1 ZJJ       0.048200
     90 H491       -11.7450    22.6970   -12.1730 hc         1 ZJJ       0.087700
     91 H492       -11.0450    24.2610   -12.8080 hc         1 ZJJ       0.087700
     92 H502       -16.5470    23.5290   -18.8110 hc         1 ZJJ       0.037700
     93 H501       -17.6140    23.8590   -17.4610 hc         1 ZJJ       0.037700
     94 H512       -20.7550    16.7170   -13.3090 hc         1 ZJJ       0.091450
     95 H532       -21.1860    18.2050   -11.2050 hc         1 ZJJ       0.091450
     96 H531       -22.4950    19.3860   -11.4520 hc         1 ZJJ       0.091450
     97 H081       -12.1190    20.8560   -13.8250 hn         1 ZJJ       0.324500
     98 H131       -17.8150    19.9950   -13.4860 hn         1 ZJJ       0.339500
     99 H351        -9.8350    21.8060   -15.3860 hn         1 ZJJ       0.336500
    100 C14        -19.4260    19.4650   -14.5930 c          1 ZJJ       0.642100
    101 H511       -21.8360    17.1160   -14.6660 hc         1 ZJJ       0.091450
@<TRIPOS>BOND
     1     1    13 1   
     2     1    39 1   
     3     1    46 2   
     4     2    34 1   
     5     2    36 1   
     6     2    47 1   
     7     2    55 1   
     8     3     5 ar  
     9     3    42 ar  
    10     3    49 1   
    11     4    16 ar  
    12     4    19 ar  
    13     4    43 ar  
    14     5    21 1   
    15     5    43 ar  
    16     6    17 ar  
    17     6    18 ar  
    18     6    50 1   
    19     7     8 1   
    20     7    11 1   
    21     7    39 1   
    22     7    56 1   
    23     8     9 1   
    24     8    57 1   
    25     8    58 1   
    26     9    10 1   
    27     9    49 1   
    28     9    59 1   
    29    10    39 1   
    30    10    60 1   
    31    10    61 1   
    32    11    40 1   
    33    11    45 2   
    34    12    22 1   
    35    12    27 1   
    36    12    32 1   
    37    12    40 1   
    38    13    14 1   
    39    13    41 1   
    40    13    62 1   
    41    14    15 1   
    42    14    63 1   
    43    14    64 1   
    44    15    33 1   
    45    15    65 1   
    46    15    66 1   
    47    16    17 ar  
    48    16    42 ar  
    49    17    67 1   
    50    18    19 ar  
    51    18    68 1   
    52    19    69 1   
    53    20    50 1   
    54    20    70 1   
    55    20    71 1   
    56    20    72 1   
    57    21    73 1   
    58    21    74 1   
    59    21    75 1   
    60    22    44 1   
    61    22    51 2   
    62    23    24 1   
    63    23    25 1   
    64    23    26 1   
    65    23    54 1   
    66    24    25 1   
    67    24    76 1   
    68    24    77 1   
    69    25    78 1   
    70    25    79 1   
    71    26    80 1   
    72    26    81 1   
    73    26    82 1   
    74    27    28 1   
    75    27    32 1   
    76    27    83 1   
    77    28    29 2   
    78    28    84 1   
    79    29    30 1   
    80    29    85 1   
    81    30    31 1   
    82    30    86 1   
    83    30    87 1   
    84    31    33 1   
    85    31    88 1   
    86    31    89 1   
    87    32    90 1   
    88    32    91 1   
    89    33    92 1   
    90    33    93 1   
    91    34    35 1   
    92    34    94 1   
    93    34   101 1   
    94    35    36 1   
    95    35    37 1   
    96    35    38 1   
    97    36    95 1   
    98    36    96 1   
    99    40    97 1   
   100    41    98 1   
   101    41   100 1   
   102    44    54 1   
   103    44    99 1   
   104    47   100 1   
   105    48   100 2   
   106    52    54 2   
   107    53    54 2   
@<TRIPOS>SUBSTRUCTURE
     1 ZJJ         1 TEMP              0 ****  ****    0 ROOT
