@<TRIPOS>MOLECULE
ZJJ
  101   107     1     0     0
SMALL
abcg2


@<TRIPOS>ATOM
      1 C10        -15.8490    20.3970   -15.6260 c          1 ZJJ       0.604100
      2 C17        -19.1120    17.7430   -12.9060 cy         1 ZJJ       0.181300
      3 C21        -13.3990    15.8570   -16.1340 ca         1 ZJJ       0.553300
      4 C24        -12.0790    13.5900   -15.6960 ca         1 ZJJ       0.166000
      5 C26        -13.8380    14.9340   -15.1190 ca         1 ZJJ       0.321300
      6 C28         -9.8320    13.0690   -17.2800 ca         1 ZJJ       0.165100
      7 C01        -13.5340    19.7180   -15.6570 c5         1 ZJJ       0.031700
      8 C02        -12.7210    18.8660   -16.6380 c5         1 ZJJ      -0.109400
      9 C03        -13.7680    17.9360   -17.2330 c5         1 ZJJ       0.164300
     10 C04        -14.9680    18.8450   -17.3980 c5         1 ZJJ       0.106000
     11 C06        -13.0180    21.1460   -15.5680 c          1 ZJJ       0.591100
     12 C09        -12.1430    22.8710   -14.1400 cx         1 ZJJ      -0.068600
     13 C11        -17.2230    20.4850   -16.2970 c3         1 ZJJ       0.065700
     14 C18        -17.4530    21.9240   -16.7690 c3         1 ZJJ      -0.089400
     15 C19        -16.5070    22.3540   -17.8860 c3         1 ZJJ      -0.079400
     16 C23        -11.6620    14.5090   -16.6770 ca         1 ZJJ       0.306000
     17 C27        -10.5300    14.2410   -17.4680 ca         1 ZJJ      -0.204000
     18 C29        -10.2460    12.1430   -16.2910 ca         1 ZJJ      -0.140000
     19 C30        -11.3430    12.4010   -15.5180 ca         1 ZJJ      -0.029000
     20 C32         -8.2800    13.5800   -18.9930 c3         1 ZJJ       0.145900
     21 C33        -15.0430    15.2310   -14.2890 c3         1 ZJJ      -0.138400
     22 C34        -10.8880    23.4220   -14.7350 c          1 ZJJ       0.678100
     23 C40         -8.5380    21.4290   -17.1900 cx         1 ZJJ      -0.399000
     24 C41         -8.1130    20.1370   -16.5530 cx         1 ZJJ      -0.078400
     25 C42         -7.1520    20.8960   -17.4040 cx         1 ZJJ      -0.078400
     26 C43         -9.5370    21.4470   -18.3180 c3         1 ZJJ      -0.044100
     27 C44        -13.3710    23.7760   -13.9920 cx         1 ZJJ      -0.035500
     28 C45        -13.4860    25.1390   -14.5450 c2         1 ZJJ      -0.189200
     29 C46        -14.4470    25.5330   -15.3830 c2         1 ZJJ      -0.191200
     30 C47        -15.5410    24.7040   -15.9800 c3         1 ZJJ      -0.047200
     31 C48        -15.4720    24.6840   -17.5090 c3         1 ZJJ      -0.074400
     32 C49        -12.5490    23.4280   -12.8030 cx         1 ZJJ      -0.095400
     33 C50        -16.5610    23.8580   -18.1950 c3         1 ZJJ      -0.066400
     34 C51        -17.9280    17.5830   -11.9330 cy         1 ZJJ      -0.149900
     35 C52        -18.9570    17.2850   -10.8530 cy         1 ZJJ       0.168000
     36 C53        -20.0690    17.8690   -11.7120 cy         1 ZJJ      -0.149900
     37 F54        -18.7590    17.8380    -9.6330 f          1 ZJJ      -0.104500
     38 F55        -19.1130    15.9490   -10.6350 f          1 ZJJ      -0.104500
     39 N05        -14.8680    19.7210   -16.2400 n          1 ZJJ      -0.384800
     40 N08        -12.4280    21.4990   -14.4020 ns         1 ZJJ      -0.474900
     41 N13        -18.2440    20.1360   -15.3360 ns         1 ZJJ      -0.486900
     42 N22        -12.3560    15.6590   -16.8700 nb         1 ZJJ      -0.757000
     43 N25        -13.1710    13.8370   -14.9300 nb         1 ZJJ      -0.613000
     44 N35        -10.1320    22.4910   -15.4000 ns         1 ZJJ      -0.569300
     45 O07        -13.1030    21.9100   -16.5100 o          1 ZJJ      -0.570100
     46 O12        -15.6480    20.9870   -14.5720 o          1 ZJJ      -0.620100
     47 O15        -19.1290    18.8940   -13.7270 os         1 ZJJ      -0.443100
     48 O16        -17.3780    18.0910   -14.8980 o          1 ZJJ      -0.543000
     49 O20        -14.1530    16.9420   -16.2810 os         1 ZJJ      -0.445300
     50 O31         -8.7480    12.7080   -17.9820 os         1 ZJJ      -0.334100
     51 O36        -10.5550    24.5810   -14.6290 o          1 ZJJ      -0.543100
     52 O38         -7.6070    22.7910   -15.1100 o          1 ZJJ      -0.515500
     53 O39         -8.7990    24.0390   -16.9140 o          1 ZJJ      -0.515500
     54 S37         -8.6480    22.8340   -16.1220 s6         1 ZJJ       1.253800
     55 H171       -19.2910    16.8440   -13.4980 h1         1 ZJJ       0.081700
     56 H011       -13.5550    19.2510   -14.6670 h1         1 ZJJ       0.077700
     57 H022       -11.8930    18.3470   -16.1590 hc         1 ZJJ       0.076200
     58 H021       -12.3120    19.4820   -17.4420 hc         1 ZJJ       0.076200
     59 H031       -13.4570    17.4730   -18.1700 h1         1 ZJJ       0.091700
     60 H041       -14.8870    19.4020   -18.3340 h1         1 ZJJ       0.072700
     61 H042       -15.9020    18.2860   -17.4090 h1         1 ZJJ       0.072700
     62 H111       -17.2910    19.8220   -17.1620 h1         1 ZJJ       0.071700
     63 H182       -17.3720    22.5890   -15.9060 hc         1 ZJJ       0.057700
     64 H181       -18.4840    22.0030   -17.1250 hc         1 ZJJ       0.057700
     65 H191       -16.7610    21.7840   -18.7830 hc         1 ZJJ       0.049700
     66 H192       -15.4750    22.0830   -17.6450 hc         1 ZJJ       0.049700
     67 H271       -10.2490    14.9750   -18.2110 ha         1 ZJJ       0.133000
     68 H291        -9.6820    11.2290   -16.1590 ha         1 ZJJ       0.135000
     69 H301       -11.6640    11.6960   -14.7630 ha         1 ZJJ       0.136000
     70 H321        -7.4040    13.1060   -19.4290 h1         1 ZJJ       0.044700
     71 H323        -9.0280    13.7310   -19.7760 h1         1 ZJJ       0.044700
     72 H322        -7.9920    14.5530   -18.5880 h1         1 ZJJ       0.044700
     73 H333       -15.2070    14.4250   -13.5780 hc         1 ZJJ       0.061367
     74 H332       -14.9260    16.1640   -13.7340 hc         1 ZJJ       0.061367
     75 H331       -15.9370    15.3380   -14.9050 hc         1 ZJJ       0.061367
     76 H412        -8.5800    19.2470   -16.9530 hc         1 ZJJ       0.088200
     77 H411        -7.9290    20.1080   -15.4860 hc         1 ZJJ       0.088200
     78 H422        -6.9430    20.5400   -18.4040 hc         1 ZJJ       0.088200
     79 H421        -6.3160    21.3800   -16.9170 hc         1 ZJJ       0.088200
     80 H431       -10.5640    21.4590   -17.9540 hc         1 ZJJ       0.053700
     81 H433        -9.3880    22.3050   -18.9710 hc         1 ZJJ       0.053700
     82 H432        -9.4110    20.5460   -18.9180 hc         1 ZJJ       0.053700
     83 H441       -14.2710    23.1790   -14.0800 hc         1 ZJJ       0.100700
     84 H451       -12.7580    25.8700   -14.2170 ha         1 ZJJ       0.191000
     85 H461       -14.4380    26.5760   -15.6890 ha         1 ZJJ       0.168000
     86 H472       -16.5100    25.1180   -15.6800 hc         1 ZJJ       0.045700
     87 H471       -15.5090    23.6850   -15.5970 hc         1 ZJJ       0.045700
     88 H482       -14.4930    24.3000   -17.8120 hc         1 ZJJ       0.048200
     89 H481       -15.5220    25.7130   -17.8790 hc         1 ZJJ       0.048200
     90 H491       -12.9530    22.7260   -12.0850 hc         1 ZJJ       0.087700
     91 H492       -11.9030    24.1880   -12.3820 hc         1 ZJJ       0.087700
     92 H502       -16.4540    24.0020   -19.2720 hc         1 ZJJ       0.037700
     93 H501       -17.5470    24.2590   -17.9380 hc         1 ZJJ       0.037700
     94 H512       -17.4330    18.5370   -11.7470 hc         1 ZJJ       0.091450
     95 H532       -20.2470    18.9150   -11.4570 hc         1 ZJJ       0.091450
     96 H531       -21.0150    17.3320   -11.7480 hc         1 ZJJ       0.091450
     97 H081       -12.4370    20.8530   -13.6270 hn         1 ZJJ       0.324500
     98 H131       -18.8820    20.8520   -15.0260 hn         1 ZJJ       0.339500
     99 H351       -10.3530    21.5080   -15.2790 hn         1 ZJJ       0.336500
    100 C14        -18.1850    18.9700   -14.6720 c          1 ZJJ       0.642100
    101 H511       -17.1840    16.8170   -12.1460 hc         1 ZJJ       0.091450
@<TRIPOS>BOND
     1     1    13 1   
     2     1    39 1   
     3     1    46 2   
     4     2    34 1   
     5     2    36 1   
     6     2    47 1   
     7     2    55 1   
     8     3     5 ar  
     9     3    42 ar  
    10     3    49 1   
    11     4    16 ar  
    12     4    19 ar  
    13     4    43 ar  
    14     5    21 1   
    15     5    43 ar  
    16     6    17 ar  
    17     6    18 ar  
    18     6    50 1   
    19     7     8 1   
    20     7    11 1   
    21     7    39 1   
    22     7    56 1   
    23     8     9 1   
    24     8    57 1   
    25     8    58 1   
    26     9    10 1   
    27     9    49 1   
    28     9    59 1   
    29    10    39 1   
    30    10    60 1   
    31    10    61 1   
    32    11    40 1   
    33    11    45 2   
    34    12    22 1   
    35    12    27 1   
    36    12    32 1   
    37    12    40 1   
    38    13    14 1   
    39    13    41 1   
    40    13    62 1   
    41    14    15 1   
    42    14    63 1   
    43    14    64 1   
    44    15    33 1   
    45    15    65 1   
    46    15    66 1   
    47    16    17 ar  
    48    16    42 ar  
    49    17    67 1   
    50    18    19 ar  
    51    18    68 1   
    52    19    69 1   
    53    20    50 1   
    54    20    70 1   
    55    20    71 1   
    56    20    72 1   
    57    21    73 1   
    58    21    74 1   
    59    21    75 1   
    60    22    44 1   
    61    22    51 2   
    62    23    24 1   
    63    23    25 1   
    64    23    26 1   
    65    23    54 1   
    66    24    25 1   
    67    24    76 1   
    68    24    77 1   
    69    25    78 1   
    70    25    79 1   
    71    26    80 1   
    72    26    81 1   
    73    26    82 1   
    74    27    28 1   
    75    27    32 1   
    76    27    83 1   
    77    28    29 2   
    78    28    84 1   
    79    29    30 1   
    80    29    85 1   
    81    30    31 1   
    82    30    86 1   
    83    30    87 1   
    84    31    33 1   
    85    31    88 1   
    86    31    89 1   
    87    32    90 1   
    88    32    91 1   
    89    33    92 1   
    90    33    93 1   
    91    34    35 1   
    92    34    94 1   
    93    34   101 1   
    94    35    36 1   
    95    35    37 1   
    96    35    38 1   
    97    36    95 1   
    98    36    96 1   
    99    40    97 1   
   100    41    98 1   
   101    41   100 1   
   102    44    54 1   
   103    44    99 1   
   104    47   100 1   
   105    48   100 2   
   106    52    54 2   
   107    53    54 2   
@<TRIPOS>SUBSTRUCTURE
     1 ZJJ         1 TEMP              0 ****  ****    0 ROOT
