@<TRIPOS>MOLECULE
ZJM
  104   110     1     0     0
SMALL
No Charge or Current Charge


@<TRIPOS>ATOM
      1 C13         -9.6180    11.5050    14.6990 cx         1 ZJM      -0.036500
      2 C15        -13.6880    15.4120    13.4120 c3         1 ZJM       0.065700
      3 C22        -14.5250    13.7070    15.2170 c3         1 ZJM      -0.079400
      4 C24         -9.7230    19.3330    16.3890 ca         1 ZJM       0.553300
      5 C28         -7.6920    20.7210    17.5710 ca         1 ZJM       0.166000
      6 C01        -10.6300    15.7360    15.8650 c5         1 ZJM       0.031700
      7 C02        -10.7650    16.6420    17.1300 c5         1 ZJM      -0.110400
      8 C04        -10.5050    14.2490    16.3180 c          1 ZJM       0.589100
      9 C05        -11.5680    17.8640    16.5960 c5         1 ZJM       0.166300
     10 C06        -12.6420    17.1750    15.7060 c5         1 ZJM       0.106000
     11 C08        -12.2120    15.4100    13.9190 c          1 ZJM       0.599100
     12 C11         -9.0810    12.2520    15.9130 cx         1 ZJM      -0.062600
     13 C12         -9.0370    11.6160    17.3170 c          1 ZJM       0.679100
     14 C14         -8.1290    11.6390    14.9040 cx         1 ZJM      -0.099400
     15 C18        -14.3870    14.0580    13.7120 c3         1 ZJM      -0.088400
     16 C19        -14.7670    16.1560    11.2590 c          1 ZJM       0.635100
     17 C23        -14.9090    12.2280    15.4940 c3         1 ZJM      -0.066400
     18 C25         -8.4470    19.5050    15.7590 ca         1 ZJM       0.323300
     19 C27         -8.9760    20.5700    18.2000 ca         1 ZJM       0.306000
     20 C29         -9.2010    21.1410    19.4630 ca         1 ZJM      -0.203000
     21 C31         -6.6890    21.4410    18.2450 ca         1 ZJM      -0.029000
     22 C32         -8.1440    18.9140    14.3880 c3         1 ZJM      -0.138400
     23 C33         -8.1830    21.8580    20.1220 ca         1 ZJM       0.163100
     24 C34         -6.9320    22.0040    19.5090 ca         1 ZJM      -0.141000
     25 C36         -9.6060    22.3410    22.0820 c3         1 ZJM       0.145900
     26 C42         -7.8050    13.8450    20.4870 cx         1 ZJM      -0.405000
     27 C43         -6.3790    14.3470    20.3400 cx         1 ZJM      -0.076900
     28 C44         -6.9090    13.9710    21.7070 cx         1 ZJM      -0.076900
     29 C45         -8.9740    14.8200    20.3010 c3         1 ZJM      -0.040100
     30 C46        -10.3390    10.2050    14.8380 c2         1 ZJM      -0.186200
     31 C47        -11.6750    10.0410    14.7800 c2         1 ZJM      -0.191200
     32 C48        -12.7240    11.1200    14.5470 c3         1 ZJM      -0.047200
     33 C49        -13.7180    11.2540    15.7230 c3         1 ZJM      -0.075400
     34 C50        -15.4440    16.7960     9.0690 c5         1 ZJM       0.163300
     35 C51        -15.5230    18.3450     9.2440 c5         1 ZJM       0.165300
     36 C52        -14.1690    18.8270     8.6450 c5         1 ZJM      -0.108400
     37 C53        -13.8040    17.7750     7.5420 c5         1 ZJM      -0.071400
     38 C54        -14.9240    16.6910     7.6120 c5         1 ZJM      -0.083400
     39 F55        -16.5940    18.8760     8.5160 f          1 ZJM      -0.267000
     40 N03        -11.9130    16.0040    15.1640 n          1 ZJM      -0.384800
     41 N10         -9.3370    13.6830    15.8430 ns         1 ZJM      -0.476900
     42 N17        -13.7030    15.6690    11.9580 ns         1 ZJM      -0.486900
     43 N26         -9.9870    19.8870    17.6060 nb         1 ZJM      -0.759000
     44 N30         -7.4290    20.1900    16.3480 nb         1 ZJM      -0.614000
     45 N37         -8.4010    12.4000    18.2200 ns         1 ZJM      -0.569300
     46 O07        -10.7170    18.6470    15.7020 os         1 ZJM      -0.442300
     47 O09        -11.3030    13.6320    17.0100 o          1 ZJM      -0.564100
     48 O16        -11.3300    14.8340    13.2900 o          1 ZJM      -0.623100
     49 O20        -14.4190    16.2360     9.9410 os         1 ZJM      -0.450100
     50 O21        -15.8430    16.4650    11.7470 o          1 ZJM      -0.552000
     51 O35         -8.3620    22.4330    21.3640 os         1 ZJM      -0.335100
     52 O38         -9.4910    10.5180    17.6020 o          1 ZJM      -0.544100
     53 O40         -7.0630    11.2690    20.0370 o          1 ZJM      -0.513500
     54 O41         -9.5340    11.7420    20.4020 o          1 ZJM      -0.513500
     55 S39         -8.2320    12.1340    19.8510 s6         1 ZJM       1.252800
     56 H131       -10.0170    12.1170    13.8920 hc         1 ZJM       0.100700
     57 H151       -14.2410    16.2160    13.9110 h1         1 ZJM       0.074700
     58 H222       -13.6020    13.9360    15.7570 hc         1 ZJM       0.049700
     59 H221       -15.2960    14.3590    15.6470 hc         1 ZJM       0.049700
     60 H011        -9.7740    16.0270    15.2420 h1         1 ZJM       0.074700
     61 H021       -11.3390    16.1470    17.9230 hc         1 ZJM       0.076700
     62 H022        -9.7950    16.9040    17.5670 hc         1 ZJM       0.076700
     63 H051       -12.0240    18.4900    17.3750 h1         1 ZJM       0.089700
     64 H061       -12.9990    17.8510    14.9170 h1         1 ZJM       0.076700
     65 H062       -13.5050    16.8530    16.3030 h1         1 ZJM       0.076700
     66 H141        -7.5760    10.7490    15.1970 hc         1 ZJM       0.086200
     67 H142        -7.5840    12.3080    14.2430 hc         1 ZJM       0.086200
     68 H182       -15.3920    14.0670    13.2710 hc         1 ZJM       0.057700
     69 H181       -13.8390    13.2670    13.1900 hc         1 ZJM       0.057700
     70 H232       -15.5310    12.2040    16.3970 hc         1 ZJM       0.037700
     71 H231       -15.5430    11.8520    14.6820 hc         1 ZJM       0.037700
     72 H291       -10.1790    21.0130    19.9160 ha         1 ZJM       0.133000
     73 H311        -5.7130    21.5630    17.7810 ha         1 ZJM       0.136000
     74 H321        -7.1560    19.2150    14.0210 hc         1 ZJM       0.062033
     75 H323        -8.1680    17.8190    14.4250 hc         1 ZJM       0.062033
     76 H322        -8.8860    19.2410    13.6510 hc         1 ZJM       0.062033
     77 H341        -6.1450    22.5570    20.0160 ha         1 ZJM       0.134000
     78 H361        -9.5290    22.8660    23.0420 h1         1 ZJM       0.044033
     79 H362       -10.4220    22.8000    21.5090 h1         1 ZJM       0.044033
     80 H363        -9.8630    21.2940    22.2860 h1         1 ZJM       0.044033
     81 H431        -5.6360    13.6890    19.8910 hc         1 ZJM       0.089200
     82 H432        -6.2210    15.4040    20.1340 hc         1 ZJM       0.089200
     83 H442        -7.1060    14.7780    22.4100 hc         1 ZJM       0.089200
     84 H441        -6.5210    13.0630    22.1650 hc         1 ZJM       0.089200
     85 H451        -8.7200    15.8250    20.6600 hc         1 ZJM       0.051367
     86 H453        -9.2570    14.9140    19.2450 hc         1 ZJM       0.051367
     87 H452        -9.8600    14.4910    20.8580 hc         1 ZJM       0.051367
     88 H461        -9.7010     9.3350    15.0040 ha         1 ZJM       0.188000
     89 H471       -12.0950     9.0400    14.8980 ha         1 ZJM       0.168000
     90 H482       -12.2490    12.0920    14.3820 hc         1 ZJM       0.046200
     91 H481       -13.2840    10.8860    13.6340 hc         1 ZJM       0.046200
     92 H491       -14.1300    10.2630    15.9490 hc         1 ZJM       0.048700
     93 H492       -13.1670    11.5670    16.6180 hc         1 ZJM       0.048700
     94 H501       -16.4050    16.2820     9.2170 h1         1 ZJM       0.087700
     95 H511       -15.6480    18.6530    10.2900 h1         1 ZJM       0.079700
     96 H521       -13.3940    18.8520     9.4200 hc         1 ZJM       0.060200
     97 H522       -14.2400    19.8430     8.2420 hc         1 ZJM       0.060200
     98 H531       -13.7490    18.2290     6.5460 hc         1 ZJM       0.049200
     99 H532       -12.8190    17.3360     7.7410 hc         1 ZJM       0.049200
    100 H541       -15.7260    16.9060     6.8970 hc         1 ZJM       0.064200
    101 H542       -14.5500    15.6890     7.3740 hc         1 ZJM       0.064200
    102 H101        -8.7430    14.2710    15.2680 hn         1 ZJM       0.323500
    103 H171       -12.8760    15.4540    11.4150 hn         1 ZJM       0.339500
    104 H371        -8.0310    13.2870    17.9300 hn         1 ZJM       0.338500
@<TRIPOS>BOND
     1     1    12 1   
     2     1    14 1   
     3     1    30 1   
     4     1    56 1   
     5     2    11 1   
     6     2    15 1   
     7     2    42 1   
     8     2    57 1   
     9     3    15 1   
    10     3    17 1   
    11     3    58 1   
    12     3    59 1   
    13     4    18 ar  
    14     4    43 ar  
    15     4    46 1   
    16     5    19 ar  
    17     5    21 ar  
    18     5    44 ar  
    19     6     7 1   
    20     6     8 1   
    21     6    40 1   
    22     6    60 1   
    23     7     9 1   
    24     7    61 1   
    25     7    62 1   
    26     8    41 1   
    27     8    47 2   
    28     9    10 1   
    29     9    46 1   
    30     9    63 1   
    31    10    40 1   
    32    10    64 1   
    33    10    65 1   
    34    11    40 1   
    35    11    48 2   
    36    12    13 1   
    37    12    14 1   
    38    12    41 1   
    39    13    45 1   
    40    13    52 2   
    41    14    66 1   
    42    14    67 1   
    43    15    68 1   
    44    15    69 1   
    45    16    42 1   
    46    16    49 1   
    47    16    50 2   
    48    17    33 1   
    49    17    70 1   
    50    17    71 1   
    51    18    22 1   
    52    18    44 ar  
    53    19    20 ar  
    54    19    43 ar  
    55    20    23 ar  
    56    20    72 1   
    57    21    24 ar  
    58    21    73 1   
    59    22    74 1   
    60    22    75 1   
    61    22    76 1   
    62    23    24 ar  
    63    23    51 1   
    64    24    77 1   
    65    25    51 1   
    66    25    78 1   
    67    25    79 1   
    68    25    80 1   
    69    26    27 1   
    70    26    28 1   
    71    26    29 1   
    72    26    55 1   
    73    27    28 1   
    74    27    81 1   
    75    27    82 1   
    76    28    83 1   
    77    28    84 1   
    78    29    85 1   
    79    29    86 1   
    80    29    87 1   
    81    30    31 2   
    82    30    88 1   
    83    31    32 1   
    84    31    89 1   
    85    32    33 1   
    86    32    90 1   
    87    32    91 1   
    88    33    92 1   
    89    33    93 1   
    90    34    35 1   
    91    34    38 1   
    92    34    49 1   
    93    34    94 1   
    94    35    36 1   
    95    35    39 1   
    96    35    95 1   
    97    36    37 1   
    98    36    96 1   
    99    36    97 1   
   100    37    38 1   
   101    37    98 1   
   102    37    99 1   
   103    38   100 1   
   104    38   101 1   
   105    41   102 1   
   106    42   103 1   
   107    45    55 1   
   108    45   104 1   
   109    53    55 2   
   110    54    55 2   
@<TRIPOS>SUBSTRUCTURE
     1 ZJM         1 TEMP              0 ****  ****    0 ROOT
