@<TRIPOS>MOLECULE
ZJM
  104   110     1     0     0
SMALL
abcg2


@<TRIPOS>ATOM
      1 C13         -9.9800    11.4050    14.8060 cx         1 ZJM      -0.036500
      2 C15        -14.1300    15.0700    13.7640 c3         1 ZJM       0.065700
      3 C22        -14.8430    13.2270    15.3700 c3         1 ZJM      -0.079400
      4 C24        -10.7820    19.4660    16.1560 ca         1 ZJM       0.553300
      5 C28         -9.2130    21.5430    16.7060 ca         1 ZJM       0.166000
      6 C01        -10.9230    15.6020    15.7770 c5         1 ZJM       0.031700
      7 C02        -10.9020    16.4980    17.0200 c5         1 ZJM      -0.110400
      8 C04        -10.6160    14.1520    16.1210 c          1 ZJM       0.589100
      9 C05        -12.0010    17.5140    16.7430 c5         1 ZJM       0.166300
     10 C06        -13.0720    16.6700    16.0790 c5         1 ZJM       0.106000
     11 C08        -12.6630    15.0410    14.2030 c          1 ZJM       0.599100
     12 C11         -9.1760    12.2700    15.7810 cx         1 ZJM      -0.062600
     13 C12         -8.8220    11.7480    17.1350 c          1 ZJM       0.679100
     14 C14         -8.5210    11.6070    14.6020 cx         1 ZJM      -0.099400
     15 C18        -14.7220    13.6670    13.9130 c3         1 ZJM      -0.088400
     16 C19        -13.7910    16.7170    12.0320 c          1 ZJM       0.635100
     17 C23        -15.2070    11.7450    15.5420 c3         1 ZJM      -0.066400
     18 C25        -10.3710    20.3740    15.1150 ca         1 ZJM       0.323300
     19 C27         -9.6220    20.6420    17.7060 ca         1 ZJM       0.306000
     20 C29         -9.2080    20.8200    19.0390 ca         1 ZJM      -0.203000
     21 C31         -8.3850    22.6270    17.0610 ca         1 ZJM      -0.029000
     22 C32        -10.8190    20.1700    13.7050 c3         1 ZJM      -0.138400
     23 C33         -8.3980    21.8870    19.3610 ca         1 ZJM       0.163100
     24 C34         -7.9870    22.7970    18.3570 ca         1 ZJM      -0.141000
     25 C36         -8.3030    21.2810    21.6480 c3         1 ZJM       0.145900
     26 C42         -7.9380    13.9890    20.2750 cx         1 ZJM      -0.405000
     27 C43         -6.7290    14.7920    19.8900 cx         1 ZJM      -0.076900
     28 C44         -6.8300    14.2190    21.2620 cx         1 ZJM      -0.076900
     29 C45         -9.2810    14.6440    20.4670 c3         1 ZJM      -0.040100
     30 C46        -10.5760    10.0900    15.1160 c2         1 ZJM      -0.186200
     31 C47        -11.8760     9.8050    15.0130 c2         1 ZJM      -0.191200
     32 C48        -12.9970    10.7370    14.6710 c3         1 ZJM      -0.047200
     33 C49        -14.0140    10.8280    15.8110 c3         1 ZJM      -0.075400
     34 C50        -13.3880    18.1620    10.2040 c5         1 ZJM       0.163300
     35 C51        -11.8600    18.2130    10.1930 c5         1 ZJM       0.165300
     36 C52        -11.4620    17.3350     9.0200 c5         1 ZJM      -0.108400
     37 C53        -12.6370    17.3950     8.0200 c5         1 ZJM      -0.071400
     38 C54        -13.7420    18.2020     8.7260 c5         1 ZJM      -0.083400
     39 F55        -11.5090    19.5440     9.9380 f          1 ZJM      -0.267000
     40 N03        -12.2950    15.7120    15.3040 n          1 ZJM      -0.384800
     41 N10         -9.4260    13.6710    15.6940 ns         1 ZJM      -0.476900
     42 N17        -14.2040    15.4870    12.3830 ns         1 ZJM      -0.486900
     43 N26        -10.4220    19.5920    17.3900 nb         1 ZJM      -0.759000
     44 N30         -9.6060    21.3780    15.4170 nb         1 ZJM      -0.614000
     45 N37         -8.5140    12.7220    18.0490 ns         1 ZJM      -0.569300
     46 O07        -11.5790    18.4740    15.7720 os         1 ZJM      -0.442300
     47 O09        -11.3840    13.4810    16.7820 o          1 ZJM      -0.564100
     48 O16        -11.8560    14.3740    13.5680 o          1 ZJM      -0.623100
     49 O20        -13.8120    16.8910    10.7070 os         1 ZJM      -0.450100
     50 O21        -13.4500    17.5700    12.8280 o          1 ZJM      -0.552000
     51 O35         -7.9460    22.1550    20.5950 os         1 ZJM      -0.335100
     52 O38         -8.7790    10.5700    17.4120 o          1 ZJM      -0.544100
     53 O40         -6.7010    11.7500    19.5790 o          1 ZJM      -0.513500
     54 O41         -9.0990    11.6200    20.2700 o          1 ZJM      -0.513500
     55 S39         -8.0240    12.3490    19.6210 s6         1 ZJM       1.252800
     56 H131       -10.5990    12.0440    14.1880 hc         1 ZJM       0.100700
     57 H151       -14.7210    15.7540    14.3770 h1         1 ZJM       0.074700
     58 H222       -13.9150    13.4270    15.9120 hc         1 ZJM       0.049700
     59 H221       -15.6020    13.8530    15.8470 hc         1 ZJM       0.049700
     60 H011       -10.2280    15.9740    15.0180 h1         1 ZJM       0.074700
     61 H021       -11.1840    15.9310    17.9100 hc         1 ZJM       0.076700
     62 H022        -9.9240    16.9380    17.2020 hc         1 ZJM       0.076700
     63 H051       -12.3600    18.0150    17.6420 h1         1 ZJM       0.089700
     64 H061       -13.7290    17.2620    15.4470 h1         1 ZJM       0.076700
     65 H062       -13.6750    16.1740    16.8430 h1         1 ZJM       0.076700
     66 H141        -7.8560    10.7810    14.8220 hc         1 ZJM       0.086200
     67 H142        -8.1880    12.2500    13.7960 hc         1 ZJM       0.086200
     68 H182       -15.7150    13.6660    13.4560 hc         1 ZJM       0.057700
     69 H181       -14.1150    12.9630    13.3390 hc         1 ZJM       0.057700
     70 H232       -15.8970    11.6420    16.3820 hc         1 ZJM       0.037700
     71 H231       -15.7540    11.3900    14.6620 hc         1 ZJM       0.037700
     72 H291        -9.5470    20.1030    19.7750 ha         1 ZJM       0.133000
     73 H311        -8.0720    23.3200    16.2910 ha         1 ZJM       0.136000
     74 H321       -10.3900    20.9400    13.0680 hc         1 ZJM       0.062033
     75 H323       -10.5130    19.1940    13.3230 hc         1 ZJM       0.062033
     76 H322       -11.9050    20.2170    13.6210 hc         1 ZJM       0.062033
     77 H341        -7.3510    23.6300    18.6320 ha         1 ZJM       0.134000
     78 H361        -7.8350    21.6730    22.5470 h1         1 ZJM       0.044033
     79 H362        -9.3850    21.2450    21.7970 h1         1 ZJM       0.044033
     80 H363        -7.9380    20.2660    21.4730 h1         1 ZJM       0.044033
     81 H431        -6.0030    14.3600    19.2130 hc         1 ZJM       0.089200
     82 H432        -6.8990    15.8520    19.7480 hc         1 ZJM       0.089200
     83 H442        -7.0780    14.8740    22.0870 hc         1 ZJM       0.089200
     84 H441        -6.1700    13.4010    21.5200 hc         1 ZJM       0.089200
     85 H451        -9.1320    15.6560    20.8400 hc         1 ZJM       0.051367
     86 H453        -9.8380    14.7170    19.5340 hc         1 ZJM       0.051367
     87 H452        -9.8880    14.1060    21.1940 hc         1 ZJM       0.051367
     88 H461        -9.8970     9.2960    15.3990 ha         1 ZJM       0.188000
     89 H471       -12.1770     8.7820    15.2250 ha         1 ZJM       0.168000
     90 H482       -12.6200    11.7310    14.4290 hc         1 ZJM       0.046200
     91 H481       -13.5100    10.3730    13.7740 hc         1 ZJM       0.046200
     92 H491       -14.3850     9.8230    16.0330 hc         1 ZJM       0.048700
     93 H492       -13.5020    11.1690    16.7160 hc         1 ZJM       0.048700
     94 H501       -13.8380    18.9710    10.7820 h1         1 ZJM       0.087700
     95 H511       -11.3900    17.9320    11.1360 h1         1 ZJM       0.079700
     96 H521       -11.3070    16.3170     9.3800 hc         1 ZJM       0.060200
     97 H522       -10.5140    17.6600     8.5910 hc         1 ZJM       0.060200
     98 H531       -12.3490    17.8650     7.0810 hc         1 ZJM       0.049200
     99 H532       -12.9820    16.3900     7.7760 hc         1 ZJM       0.049200
    100 H541       -13.7250    19.2430     8.4010 hc         1 ZJM       0.064200
    101 H542       -14.7480    17.8270     8.5350 hc         1 ZJM       0.064200
    102 H101        -8.8510    14.2320    15.0830 hn         1 ZJM       0.323500
    103 H171       -14.3830    14.7970    11.6700 hn         1 ZJM       0.339500
    104 H371        -8.3770    13.6770    17.7360 hn         1 ZJM       0.338500
@<TRIPOS>BOND
     1     1    12 1   
     2     1    14 1   
     3     1    30 1   
     4     1    56 1   
     5     2    11 1   
     6     2    15 1   
     7     2    42 1   
     8     2    57 1   
     9     3    15 1   
    10     3    17 1   
    11     3    58 1   
    12     3    59 1   
    13     4    18 ar  
    14     4    43 ar  
    15     4    46 1   
    16     5    19 ar  
    17     5    21 ar  
    18     5    44 ar  
    19     6     7 1   
    20     6     8 1   
    21     6    40 1   
    22     6    60 1   
    23     7     9 1   
    24     7    61 1   
    25     7    62 1   
    26     8    41 1   
    27     8    47 2   
    28     9    10 1   
    29     9    46 1   
    30     9    63 1   
    31    10    40 1   
    32    10    64 1   
    33    10    65 1   
    34    11    40 1   
    35    11    48 2   
    36    12    13 1   
    37    12    14 1   
    38    12    41 1   
    39    13    45 1   
    40    13    52 2   
    41    14    66 1   
    42    14    67 1   
    43    15    68 1   
    44    15    69 1   
    45    16    42 1   
    46    16    49 1   
    47    16    50 2   
    48    17    33 1   
    49    17    70 1   
    50    17    71 1   
    51    18    22 1   
    52    18    44 ar  
    53    19    20 ar  
    54    19    43 ar  
    55    20    23 ar  
    56    20    72 1   
    57    21    24 ar  
    58    21    73 1   
    59    22    74 1   
    60    22    75 1   
    61    22    76 1   
    62    23    24 ar  
    63    23    51 1   
    64    24    77 1   
    65    25    51 1   
    66    25    78 1   
    67    25    79 1   
    68    25    80 1   
    69    26    27 1   
    70    26    28 1   
    71    26    29 1   
    72    26    55 1   
    73    27    28 1   
    74    27    81 1   
    75    27    82 1   
    76    28    83 1   
    77    28    84 1   
    78    29    85 1   
    79    29    86 1   
    80    29    87 1   
    81    30    31 2   
    82    30    88 1   
    83    31    32 1   
    84    31    89 1   
    85    32    33 1   
    86    32    90 1   
    87    32    91 1   
    88    33    92 1   
    89    33    93 1   
    90    34    35 1   
    91    34    38 1   
    92    34    49 1   
    93    34    94 1   
    94    35    36 1   
    95    35    39 1   
    96    35    95 1   
    97    36    37 1   
    98    36    96 1   
    99    36    97 1   
   100    37    38 1   
   101    37    98 1   
   102    37    99 1   
   103    38   100 1   
   104    38   101 1   
   105    41   102 1   
   106    42   103 1   
   107    45    55 1   
   108    45   104 1   
   109    53    55 2   
   110    54    55 2   
@<TRIPOS>SUBSTRUCTURE
     1 ZJM         1 TEMP              0 ****  ****    0 ROOT
