@<TRIPOS>MOLECULE
ZJN
   65    69     1     0     0
SMALL
No Charge or Current Charge


@<TRIPOS>ATOM
      1 N1         -15.3340    18.3880    26.6510 ns         1 ZJN      -0.362500
      2 N3         -17.5790    15.4200    26.6280 n          1 ZJN      -0.431800
      3 C4         -19.0810    14.4510    24.7660 c6         1 ZJN       0.078000
      4 C5         -19.0030    13.3060    26.9280 c6         1 ZJN       0.078000
      5 C6         -18.2650    14.4980    27.5790 c6         1 ZJN       0.092000
      6 C8         -21.8620    12.3230    26.4050 cc         1 ZJN       0.054500
      7 C10        -23.5480    11.2330    27.3940 cd         1 ZJN      -0.198000
      8 C13        -13.7370    20.4180    27.8740 c6         1 ZJN      -0.027100
      9 C15        -12.3820    21.5230    29.7230 ca         1 ZJN      -0.106000
     10 C17        -11.6000    23.8180    29.5270 ca         1 ZJN      -0.110000
     11 C20        -13.5110    22.9210    26.3190 c6         1 ZJN       0.209100
     12 C21        -14.9730    21.9650    24.5740 c3         1 ZJN       0.209100
     13 C22        -15.5770    23.3310    24.2560 ca         1 ZJN      -0.091300
     14 C24        -15.4980    25.4610    23.0660 ca         1 ZJN      -0.116000
     15 C26        -17.3400    24.9890    24.5830 ca         1 ZJN      -0.116000
     16 C1         -14.6650    19.2100    25.7500 c          1 ZJN       0.600100
     17 C11        -22.8720    11.9470    28.3450 cc         1 ZJN       0.140900
     18 C12        -13.9130    20.4790    26.3240 c6         1 ZJN       0.113500
     19 C14        -12.9730    21.6100    28.4470 ca         1 ZJN      -0.066300
     20 C16        -11.6960    22.6240    30.2610 ca         1 ZJN      -0.108000
     21 C18        -12.1920    23.9100    28.2560 ca         1 ZJN      -0.106000
     22 C19        -12.8840    22.8100    27.7120 ca         1 ZJN      -0.078300
     23 C2         -16.6030    16.3120    27.1190 c          1 ZJN       0.675100
     24 C23        -14.9390    24.2040    23.3520 ca         1 ZJN      -0.094500
     25 C25        -16.6990    25.8540    23.6810 ca         1 ZJN      -0.107000
     26 C27        -16.7810    23.7310    24.8700 ca         1 ZJN      -0.094500
     27 C3         -18.2960    15.6590    25.3370 c6         1 ZJN       0.092000
     28 C9         -22.9150    11.4790    26.1580 cd         1 ZJN      -0.110000
     29 N2         -16.1780    17.3020    26.2530 ns         1 ZJN      -0.398500
     30 N4         -19.8640    13.6980    25.7790 n          1 ZJN      -0.407800
     31 N5         -14.4800    21.8380    25.9720 n3         1 ZJN      -0.693600
     32 O1         -14.6610    18.9400    24.5520 o          1 ZJN      -0.550100
     33 O2         -16.1490    16.2210    28.2510 o          1 ZJN      -0.625100
     34 O3         -21.1800    12.7340    24.1580 o          1 ZJN      -0.586100
     35 O4         -21.8380    12.6360    27.7520 os         1 ZJN      -0.232000
     36 H1         -15.4550    18.7270    27.6020 hn         1 ZJN       0.332500
     37 H6         -19.7460    14.8160    23.9690 h1         1 ZJN       0.062700
     38 H5         -18.3670    13.7580    24.2970 h1         1 ZJN       0.062700
     39 H7         -19.5500    12.7660    27.7060 h1         1 ZJN       0.062700
     40 H8         -18.2450    12.6040    26.5540 h1         1 ZJN       0.062700
     41 H10        -18.9940    15.0830    28.1570 h1         1 ZJN       0.066950
     42 H9         -17.5360    14.0960    28.2970 h1         1 ZJN       0.066950
     43 H12        -24.4150    10.6040    27.5660 ha         1 ZJN       0.148000
     44 H15        -14.7220    20.3890    28.3600 hc         1 ZJN       0.073700
     45 H16        -13.2190    19.4880    28.1480 hc         1 ZJN       0.073700
     46 H17        -12.4570    20.6030    30.2980 ha         1 ZJN       0.114000
     47 H19        -11.0670    24.6710    29.9420 ha         1 ZJN       0.113000
     48 H21        -14.0030    23.9020    26.2530 h1         1 ZJN       0.047200
     49 H22        -12.6900    22.9340    25.5860 h1         1 ZJN       0.047200
     50 H24        -14.1560    21.7590    23.8680 h1         1 ZJN       0.039700
     51 H23        -15.7590    21.2220    24.3840 h1         1 ZJN       0.039700
     52 H26        -15.0000    26.1310    22.3690 ha         1 ZJN       0.112000
     53 H28        -18.2690    25.2920    25.0620 ha         1 ZJN       0.112000
     54 H13        -23.0130    12.0560    29.4130 h4         1 ZJN       0.056100
     55 H14        -12.9070    20.4030    25.8870 h1         1 ZJN       0.028700
     56 H18        -11.2390    22.5530    31.2460 ha         1 ZJN       0.113000
     57 H20        -12.1130    24.8370    27.6920 ha         1 ZJN       0.111000
     58 H25        -14.0070    23.9090    22.8730 ha         1 ZJN       0.120500
     59 H27        -17.1310    26.8280    23.4600 ha         1 ZJN       0.111000
     60 H29        -17.2790    23.0660    25.5720 ha         1 ZJN       0.120500
     61 H3         -19.0050    16.4850    25.4920 h1         1 ZJN       0.066950
     62 H4         -17.5850    15.9820    24.5640 h1         1 ZJN       0.066950
     63 H11        -23.2040    11.0830    25.1890 ha         1 ZJN       0.157000
     64 H2         -16.6980    17.4260    25.3910 hn         1 ZJN       0.338500
     65 C7         -20.9630    12.9020    25.3540 c          1 ZJN       0.548600
@<TRIPOS>BOND
     1     1    16 1   
     2     1    29 1   
     3     1    36 1   
     4     2     5 1   
     5     2    23 1   
     6     2    27 1   
     7     3    27 1   
     8     3    30 1   
     9     3    37 1   
    10     3    38 1   
    11     4     5 1   
    12     4    30 1   
    13     4    39 1   
    14     4    40 1   
    15     5    41 1   
    16     5    42 1   
    17     6    28 2   
    18     6    35 1   
    19     6    65 1   
    20     7    17 2   
    21     7    28 1   
    22     7    43 1   
    23     8    18 1   
    24     8    19 1   
    25     8    44 1   
    26     8    45 1   
    27     9    19 ar  
    28     9    20 ar  
    29     9    46 1   
    30    10    20 ar  
    31    10    21 ar  
    32    10    47 1   
    33    11    22 1   
    34    11    31 1   
    35    11    48 1   
    36    11    49 1   
    37    12    13 1   
    38    12    31 1   
    39    12    50 1   
    40    12    51 1   
    41    13    24 ar  
    42    13    26 ar  
    43    14    24 ar  
    44    14    25 ar  
    45    14    52 1   
    46    15    25 ar  
    47    15    26 ar  
    48    15    53 1   
    49    16    18 1   
    50    16    32 2   
    51    17    35 1   
    52    17    54 1   
    53    18    31 1   
    54    18    55 1   
    55    19    22 ar  
    56    20    56 1   
    57    21    22 ar  
    58    21    57 1   
    59    23    29 1   
    60    23    33 2   
    61    24    58 1   
    62    25    59 1   
    63    26    60 1   
    64    27    61 1   
    65    27    62 1   
    66    28    63 1   
    67    29    64 1   
    68    30    65 1   
    69    34    65 2   
@<TRIPOS>SUBSTRUCTURE
     1 ZJN         1 TEMP              0 ****  ****    0 ROOT
