@<TRIPOS>MOLECULE
ZJN
   65    69     1     0     0
SMALL
abcg2


@<TRIPOS>ATOM
      1 N1         -15.5950    18.4340    25.9950 ns         1 ZJN      -0.362500
      2 N3         -18.2560    16.1510    26.6170 n          1 ZJN      -0.431800
      3 C4         -19.2420    14.9780    24.7040 c6         1 ZJN       0.078000
      4 C5         -18.7790    13.7880    26.7590 c6         1 ZJN       0.078000
      5 C6         -18.6750    15.0990    27.5230 c6         1 ZJN       0.092000
      6 C8         -21.2690    12.2150    26.2850 cc         1 ZJN       0.054500
      7 C10        -22.3720    10.6370    27.4000 cd         1 ZJN      -0.198000
      8 C13        -14.4330    20.5960    28.3130 c6         1 ZJN      -0.027100
      9 C15        -12.8730    21.5650    30.0310 ca         1 ZJN      -0.106000
     10 C17        -11.4360    23.4170    29.5180 ca         1 ZJN      -0.110000
     11 C20        -13.3600    22.5010    26.3930 c6         1 ZJN       0.209100
     12 C21        -14.8830    21.7290    24.7510 c3         1 ZJN       0.209100
     13 C22        -15.3230    23.0790    24.2470 ca         1 ZJN      -0.091300
     14 C24        -15.1280    24.9210    22.6960 ca         1 ZJN      -0.116000
     15 C26        -16.8310    24.9590    24.3870 ca         1 ZJN      -0.116000
     16 C1         -15.8100    19.6710    26.5030 c          1 ZJN       0.600100
     17 C11        -22.0120    11.6340    28.2450 cc         1 ZJN       0.140900
     18 C12        -14.5320    20.4490    26.7940 c6         1 ZJN       0.113500
     19 C14        -13.3680    21.5670    28.7280 ca         1 ZJN      -0.066300
     20 C16        -11.9140    22.4810    30.4300 ca         1 ZJN      -0.108000
     21 C18        -11.9240    23.4230    28.2230 ca         1 ZJN      -0.106000
     22 C19        -12.8900    22.5030    27.8180 ca         1 ZJN      -0.078300
     23 C2         -17.1080    16.8390    26.8490 c          1 ZJN       0.675100
     24 C23        -14.6940    23.6870    23.1680 ca         1 ZJN      -0.094500
     25 C25        -16.1970    25.5600    23.3040 ca         1 ZJN      -0.107000
     26 C27        -16.3960    23.7290    24.8550 ca         1 ZJN      -0.094500
     27 C3         -19.1400    16.2870    25.4750 c6         1 ZJN       0.092000
     28 C9         -21.8980    11.0230    26.1160 cd         1 ZJN      -0.110000
     29 N2         -16.6280    17.5800    25.7960 ns         1 ZJN      -0.398500
     30 N4         -19.6680    13.9320    25.6170 n          1 ZJN      -0.407800
     31 N5         -14.5920    21.7630    26.1770 n3         1 ZJN      -0.693600
     32 O1         -16.9180    20.1130    26.7290 o          1 ZJN      -0.550100
     33 O2         -16.5180    16.8140    27.9170 o          1 ZJN      -0.625100
     34 O3         -21.1220    13.0440    24.1260 o          1 ZJN      -0.586100
     35 O4         -21.3440    12.5930    27.5810 os         1 ZJN      -0.232000
     36 H1         -14.6580    18.0690    25.9040 hn         1 ZJN       0.332500
     37 H6         -19.9630    15.0810    23.8980 h1         1 ZJN       0.062700
     38 H5         -18.2730    14.7210    24.2640 h1         1 ZJN       0.062700
     39 H7         -19.0990    12.9910    27.4220 h1         1 ZJN       0.062700
     40 H8         -17.7860    13.5160    26.3850 h1         1 ZJN       0.062700
     41 H10        -19.6450    15.3520    27.9620 h1         1 ZJN       0.066950
     42 H9         -17.9550    14.9990    28.3310 h1         1 ZJN       0.066950
     43 H12        -22.9130     9.7420    27.6580 ha         1 ZJN       0.148000
     44 H15        -15.3980    20.9370    28.6990 hc         1 ZJN       0.073700
     45 H16        -14.2470    19.6160    28.7580 hc         1 ZJN       0.073700
     46 H17        -13.2460    20.8320    30.7380 ha         1 ZJN       0.114000
     47 H19        -10.6880    24.1390    29.8190 ha         1 ZJN       0.113000
     48 H21        -13.5100    23.5320    26.0620 h1         1 ZJN       0.047200
     49 H22        -12.5470    22.0970    25.7630 h1         1 ZJN       0.047200
     50 H24        -14.0190    21.3780    24.1650 h1         1 ZJN       0.039700
     51 H23        -15.6900    21.0200    24.5580 h1         1 ZJN       0.039700
     52 H26        -14.6250    25.3820    21.8550 ha         1 ZJN       0.112000
     53 H28        -17.6680    25.4520    24.8660 ha         1 ZJN       0.112000
     54 H13        -22.1620    11.7930    29.3000 h4         1 ZJN       0.056100
     55 H14        -13.6600    19.8780    26.4320 h1         1 ZJN       0.028700
     56 H18        -11.5370    22.4660    31.4450 ha         1 ZJN       0.113000
     57 H20        -11.5520    24.1510    27.5110 ha         1 ZJN       0.111000
     58 H25        -13.8530    23.1940    22.6930 ha         1 ZJN       0.120500
     59 H27        -16.5370    26.5220    22.9400 ha         1 ZJN       0.111000
     60 H29        -16.8910    23.2660    25.7000 ha         1 ZJN       0.120500
     61 H3         -20.1350    16.5580    25.8410 h1         1 ZJN       0.066950
     62 H4         -18.8330    17.0870    24.8070 h1         1 ZJN       0.066950
     63 H11        -22.0020    10.4800    25.1910 ha         1 ZJN       0.157000
     64 H2         -16.9720    17.5120    24.8530 hn         1 ZJN       0.338500
     65 C7         -20.6670    13.0940    25.2620 c          1 ZJN       0.548600
@<TRIPOS>BOND
     1     1    16 1   
     2     1    29 1   
     3     1    36 1   
     4     2     5 1   
     5     2    23 1   
     6     2    27 1   
     7     3    27 1   
     8     3    30 1   
     9     3    37 1   
    10     3    38 1   
    11     4     5 1   
    12     4    30 1   
    13     4    39 1   
    14     4    40 1   
    15     5    41 1   
    16     5    42 1   
    17     6    28 2   
    18     6    35 1   
    19     6    65 1   
    20     7    17 2   
    21     7    28 1   
    22     7    43 1   
    23     8    18 1   
    24     8    19 1   
    25     8    44 1   
    26     8    45 1   
    27     9    19 ar  
    28     9    20 ar  
    29     9    46 1   
    30    10    20 ar  
    31    10    21 ar  
    32    10    47 1   
    33    11    22 1   
    34    11    31 1   
    35    11    48 1   
    36    11    49 1   
    37    12    13 1   
    38    12    31 1   
    39    12    50 1   
    40    12    51 1   
    41    13    24 ar  
    42    13    26 ar  
    43    14    24 ar  
    44    14    25 ar  
    45    14    52 1   
    46    15    25 ar  
    47    15    26 ar  
    48    15    53 1   
    49    16    18 1   
    50    16    32 2   
    51    17    35 1   
    52    17    54 1   
    53    18    31 1   
    54    18    55 1   
    55    19    22 ar  
    56    20    56 1   
    57    21    22 ar  
    58    21    57 1   
    59    23    29 1   
    60    23    33 2   
    61    24    58 1   
    62    25    59 1   
    63    26    60 1   
    64    27    61 1   
    65    27    62 1   
    66    28    63 1   
    67    29    64 1   
    68    30    65 1   
    69    34    65 2   
@<TRIPOS>SUBSTRUCTURE
     1 ZJN         1 TEMP              0 ****  ****    0 ROOT
