@<TRIPOS>MOLECULE
ZJP
  104   110     1     0     0
SMALL
abcg2


@<TRIPOS>ATOM
      1 C13        -13.5860   -23.9370    14.7580 cx         1 ZJP      -0.032500
      2 C15        -17.3070   -20.3870    16.1920 c3         1 ZJP       0.062700
      3 C22        -16.7870   -22.2460    17.8580 c3         1 ZJP      -0.079400
      4 C24        -13.6070   -15.7390    16.2160 ca         1 ZJP       0.555300
      5 C28        -12.3760   -13.4100    15.8380 ca         1 ZJP       0.165000
      6 C01        -13.5590   -19.6650    15.8140 c5         1 ZJP       0.030700
      7 C02        -12.8290   -18.7290    16.7840 c5         1 ZJP      -0.108400
      8 C04        -13.0170   -21.0920    15.8690 c          1 ZJP       0.586100
      9 C05        -13.9320   -17.8250    17.3120 c5         1 ZJP       0.164300
     10 C06        -15.1030   -18.7760    17.4500 c5         1 ZJP       0.103000
     11 C08        -15.8830   -20.3300    15.6320 c          1 ZJP       0.591100
     12 C11        -12.3800   -23.0140    14.5290 cx         1 ZJP      -0.067600
     13 C12        -11.0220   -23.5240    14.8740 c          1 ZJP       0.676100
     14 C14        -13.0940   -23.6750    13.3820 cx         1 ZJP      -0.098400
     15 C18        -17.6080   -21.8160    16.6460 c3         1 ZJP      -0.088400
     16 C19        -18.2760   -18.7240    14.7220 c          1 ZJP       0.638100
     17 C23        -16.9950   -23.7180    18.2160 c3         1 ZJP      -0.070400
     18 C25        -14.0610   -14.8200    15.2030 ca         1 ZJP       0.322300
     19 C27        -11.9440   -14.3230    16.8190 ca         1 ZJP       0.307000
     20 C29        -10.8450   -14.0170    17.6410 ca         1 ZJP      -0.203000
     21 C31        -11.6890   -12.1880    15.6940 ca         1 ZJP      -0.029000
     22 C32        -15.2330   -15.1540    14.3410 c3         1 ZJP      -0.140400
     23 C33        -10.1940   -12.8120    17.4850 ca         1 ZJP       0.164100
     24 C34        -10.6240   -11.8930    16.4970 ca         1 ZJP      -0.141000
     25 C36         -8.6650   -13.2750    19.2310 c3         1 ZJP       0.145900
     26 C42         -8.1220   -21.3590    16.4550 cx         1 ZJP      -0.402000
     27 C43         -6.6900   -20.9530    16.2580 cx         1 ZJP      -0.077400
     28 C44         -7.7660   -20.2670    15.4870 cx         1 ZJP      -0.077400
     29 C45         -8.8330   -21.0550    17.7490 c3         1 ZJP      -0.042100
     30 C46        -13.5090   -25.2890    15.3570 c2         1 ZJP      -0.192200
     31 C47        -14.0620   -25.6290    16.5220 c2         1 ZJP      -0.188200
     32 C48        -14.7690   -24.7080    17.4690 c3         1 ZJP      -0.058200
     33 C49        -16.2900   -24.7000    17.2790 c3         1 ZJP      -0.071400
     34 C50        -19.1650   -17.3000    13.0400 c5         1 ZJP       0.192300
     35 C51        -17.9470   -17.0020    12.1750 c5         1 ZJP      -0.095400
     36 C52        -18.1480   -17.8420    10.9020 c5         1 ZJP      -0.076400
     37 C53        -19.6610   -18.1550    10.8370 c5         1 ZJP      -0.076400
     38 C54        -20.2850   -17.4000    12.0180 c5         1 ZJP      -0.095400
     39 N03        -14.9340   -19.6610    16.3060 n          1 ZJP      -0.388800
     40 N10        -12.6100   -21.6160    14.6910 ns         1 ZJP      -0.465900
     41 N17        -18.2410   -20.0000    15.1610 ns         1 ZJP      -0.483900
     42 N26        -12.5920   -15.5050    16.9800 nb         1 ZJP      -0.757000
     43 N30        -13.4380   -13.6940    15.0430 nb         1 ZJP      -0.615000
     44 N37        -10.1480   -22.5590    15.2990 ns         1 ZJP      -0.569300
     45 O07        -14.3150   -16.8580    16.3320 os         1 ZJP      -0.444300
     46 O09        -12.9560   -21.7020    16.9200 o          1 ZJP      -0.574100
     47 O16        -15.6220   -20.9310    14.5980 o          1 ZJP      -0.627100
     48 O20        -19.0590   -18.5980    13.6540 os         1 ZJP      -0.453100
     49 O21        -17.6840   -17.8080    15.2590 o          1 ZJP      -0.556000
     50 O35         -9.1460   -12.4130    18.2190 os         1 ZJP      -0.335100
     51 O38        -10.7060   -24.6900    14.7880 o          1 ZJP      -0.545100
     52 O40         -8.6060   -23.9360    16.7810 o          1 ZJP      -0.514500
     53 O41         -7.7740   -23.1810    14.5540 o          1 ZJP      -0.514500
     54 S39         -8.5620   -22.9190    15.7470 s6         1 ZJP       1.251800
     55 H131       -14.4580   -23.3630    15.0500 hc         1 ZJP       0.098700
     56 H151       -17.4360   -19.7230    17.0470 h1         1 ZJP       0.080700
     57 H222       -15.7230   -22.0560    17.6900 hc         1 ZJP       0.047700
     58 H221       -17.0680   -21.6210    18.7100 hc         1 ZJP       0.047700
     59 H011       -13.5240   -19.2760    14.7930 h1         1 ZJP       0.075700
     60 H022       -12.4180   -19.2910    17.6240 hc         1 ZJP       0.078700
     61 H021       -12.0120   -18.1900    16.3080 hc         1 ZJP       0.078700
     62 H051       -13.6770   -17.3370    18.2530 h1         1 ZJP       0.091700
     63 H062       -16.0570   -18.2550    17.4290 h1         1 ZJP       0.077200
     64 H061       -15.0250   -19.3220    18.3940 h1         1 ZJP       0.077200
     65 H141       -12.5660   -24.4710    12.8710 hc         1 ZJP       0.089700
     66 H142       -13.6690   -23.0230    12.7370 hc         1 ZJP       0.089700
     67 H181       -18.6700   -21.8740    16.8970 hc         1 ZJP       0.058700
     68 H182       -17.4450   -22.4970    15.8060 hc         1 ZJP       0.058700
     69 H231       -18.0690   -23.9310    18.2280 hc         1 ZJP       0.040700
     70 H232       -16.6430   -23.8940    19.2370 hc         1 ZJP       0.040700
     71 H291       -10.5500   -14.7470    18.3830 ha         1 ZJP       0.134000
     72 H311       -12.0220   -11.4880    14.9390 ha         1 ZJP       0.135000
     73 H321       -15.4160   -14.3440    13.6390 hc         1 ZJP       0.061033
     74 H322       -15.0620   -16.0710    13.7740 hc         1 ZJP       0.061033
     75 H323       -16.1360   -15.3120    14.9320 hc         1 ZJP       0.061033
     76 H341       -10.0980   -10.9530    16.3910 ha         1 ZJP       0.134000
     77 H363        -7.8220   -12.7680    19.6950 h1         1 ZJP       0.044700
     78 H362        -9.4250   -13.4690    19.9930 h1         1 ZJP       0.044700
     79 H361        -8.3230   -14.2300    18.8230 h1         1 ZJP       0.044700
     80 H431        -6.0200   -21.6110    15.7200 hc         1 ZJP       0.088700
     81 H432        -6.2380   -20.4400    17.0960 hc         1 ZJP       0.088700
     82 H442        -7.8310   -20.4590    14.4240 hc         1 ZJP       0.088700
     83 H441        -8.0670   -19.2700    15.7820 hc         1 ZJP       0.088700
     84 H451        -8.5140   -20.0770    18.1080 hc         1 ZJP       0.053033
     85 H452        -9.9160   -21.0220    17.6250 hc         1 ZJP       0.053033
     86 H453        -8.5930   -21.7870    18.5180 hc         1 ZJP       0.053033
     87 H461       -13.0250   -26.0580    14.7680 ha         1 ZJP       0.187000
     88 H471       -14.0120   -26.6740    16.8130 ha         1 ZJP       0.170000
     89 H481       -14.5510   -25.0200    18.4940 hc         1 ZJP       0.056200
     90 H482       -14.3760   -23.6970    17.3680 hc         1 ZJP       0.056200
     91 H492       -16.5220   -24.4630    16.2360 hc         1 ZJP       0.039700
     92 H491       -16.6780   -25.7070    17.4510 hc         1 ZJP       0.039700
     93 H501       -19.3480   -16.5450    13.8070 h1         1 ZJP       0.071700
     94 H511       -16.9990   -17.1950    12.6770 hc         1 ZJP       0.057200
     95 H512       -17.9660   -15.9360    11.9390 hc         1 ZJP       0.057200
     96 H521       -17.5650   -18.7620    10.9490 hc         1 ZJP       0.045700
     97 H522       -17.8050   -17.3020    10.0200 hc         1 ZJP       0.045700
     98 H531       -20.1060   -17.8530     9.8890 hc         1 ZJP       0.045700
     99 H532       -19.8340   -19.2270    10.9360 hc         1 ZJP       0.045700
    100 H541       -20.5530   -16.3840    11.7230 hc         1 ZJP       0.057200
    101 H542       -21.1860   -17.8700    12.4150 hc         1 ZJP       0.057200
    102 H101       -12.7740   -21.0780    13.8530 hn         1 ZJP       0.324500
    103 H171       -18.6310   -20.7240    14.5770 hn         1 ZJP       0.334500
    104 H371       -10.3830   -21.5810    15.1700 hn         1 ZJP       0.340500
@<TRIPOS>BOND
     1     1    12 1   
     2     1    14 1   
     3     1    30 1   
     4     1    55 1   
     5     2    11 1   
     6     2    15 1   
     7     2    41 1   
     8     2    56 1   
     9     3    15 1   
    10     3    17 1   
    11     3    57 1   
    12     3    58 1   
    13     4    18 ar  
    14     4    42 ar  
    15     4    45 1   
    16     5    19 ar  
    17     5    21 ar  
    18     5    43 ar  
    19     6     7 1   
    20     6     8 1   
    21     6    39 1   
    22     6    59 1   
    23     7     9 1   
    24     7    60 1   
    25     7    61 1   
    26     8    40 1   
    27     8    46 2   
    28     9    10 1   
    29     9    45 1   
    30     9    62 1   
    31    10    39 1   
    32    10    63 1   
    33    10    64 1   
    34    11    39 1   
    35    11    47 2   
    36    12    13 1   
    37    12    14 1   
    38    12    40 1   
    39    13    44 1   
    40    13    51 2   
    41    14    65 1   
    42    14    66 1   
    43    15    67 1   
    44    15    68 1   
    45    16    41 1   
    46    16    48 1   
    47    16    49 2   
    48    17    33 1   
    49    17    69 1   
    50    17    70 1   
    51    18    22 1   
    52    18    43 ar  
    53    19    20 ar  
    54    19    42 ar  
    55    20    23 ar  
    56    20    71 1   
    57    21    24 ar  
    58    21    72 1   
    59    22    73 1   
    60    22    74 1   
    61    22    75 1   
    62    23    24 ar  
    63    23    50 1   
    64    24    76 1   
    65    25    50 1   
    66    25    77 1   
    67    25    78 1   
    68    25    79 1   
    69    26    27 1   
    70    26    28 1   
    71    26    29 1   
    72    26    54 1   
    73    27    28 1   
    74    27    80 1   
    75    27    81 1   
    76    28    82 1   
    77    28    83 1   
    78    29    84 1   
    79    29    85 1   
    80    29    86 1   
    81    30    31 2   
    82    30    87 1   
    83    31    32 1   
    84    31    88 1   
    85    32    33 1   
    86    32    89 1   
    87    32    90 1   
    88    33    91 1   
    89    33    92 1   
    90    34    35 1   
    91    34    38 1   
    92    34    48 1   
    93    34    93 1   
    94    35    36 1   
    95    35    94 1   
    96    35    95 1   
    97    36    37 1   
    98    36    96 1   
    99    36    97 1   
   100    37    38 1   
   101    37    98 1   
   102    37    99 1   
   103    38   100 1   
   104    38   101 1   
   105    40   102 1   
   106    41   103 1   
   107    44    54 1   
   108    44   104 1   
   109    52    54 2   
   110    53    54 2   
@<TRIPOS>SUBSTRUCTURE
     1 ZJP         1 TEMP              0 ****  ****    0 ROOT
