@<TRIPOS>MOLECULE
ZJP
  104   110     1     0     0
SMALL
No Charge or Current Charge


@<TRIPOS>ATOM
      1 C13        -14.0240   -23.7200    15.0820 cx         1 ZJP      -0.032500
      2 C15        -17.0690   -19.8610    15.6410 c3         1 ZJP       0.062700
      3 C22        -16.6460   -21.2700    17.8270 c3         1 ZJP      -0.079400
      4 C24        -12.4370   -15.6520    16.4630 ca         1 ZJP       0.555300
      5 C28        -10.1640   -14.1460    16.5630 ca         1 ZJP       0.165000
      6 C01        -13.1990   -19.2590    16.1820 c5         1 ZJP       0.030700
      7 C02        -12.7620   -18.4350    17.4340 c5         1 ZJP      -0.108400
      8 C04        -12.5990   -20.7060    16.2800 c          1 ZJP       0.586100
      9 C05        -13.8100   -17.2910    17.4690 c5         1 ZJP       0.164300
     10 C06        -15.1240   -18.0750    17.1980 c5         1 ZJP       0.103000
     11 C08        -15.5610   -19.6600    15.2810 c          1 ZJP       0.591100
     12 C11        -12.7560   -22.8830    15.0180 cx         1 ZJP      -0.067600
     13 C12        -11.3850   -23.4360    15.4410 c          1 ZJP       0.676100
     14 C14        -13.3200   -23.5290    13.7650 cx         1 ZJP      -0.098400
     15 C18        -17.3220   -21.1770    16.4330 c3         1 ZJP      -0.088400
     16 C19        -19.2040   -19.6060    14.3170 c          1 ZJP       0.638100
     17 C23        -16.9720   -22.5720    18.6080 c3         1 ZJP      -0.070400
     18 C25        -11.6350   -15.4040    15.3010 ca         1 ZJP       0.322300
     19 C27        -10.9770   -14.3740    17.7260 ca         1 ZJP       0.307000
     20 C29        -10.5930   -13.8210    18.9590 ca         1 ZJP      -0.203000
     21 C31         -8.9980   -13.3710    16.6920 ca         1 ZJP      -0.029000
     22 C32        -11.9890   -15.9820    13.9370 c3         1 ZJP      -0.140400
     23 C33         -9.4200   -13.0480    19.0680 ca         1 ZJP       0.164100
     24 C34         -8.6290   -12.8270    17.9340 ca         1 ZJP      -0.141000
     25 C36         -9.7390   -12.6620    21.4860 c3         1 ZJP       0.145900
     26 C42         -8.0670   -21.3600    14.4170 cx         1 ZJP      -0.402000
     27 C43         -6.6500   -21.3150    13.8740 cx         1 ZJP      -0.077400
     28 C44         -7.8240   -21.2010    12.9260 cx         1 ZJP      -0.077400
     29 C45         -8.6060   -20.1730    15.2290 c3         1 ZJP      -0.042100
     30 C46        -14.0570   -25.0290    15.7950 c2         1 ZJP      -0.192200
     31 C47        -14.4610   -25.1820    17.0690 c2         1 ZJP      -0.188200
     32 C48        -14.9180   -24.0600    17.9860 c3         1 ZJP      -0.058200
     33 C49        -16.4550   -23.8900    17.9720 c3         1 ZJP      -0.071400
     34 C50        -20.9760   -19.4020    12.7460 c5         1 ZJP       0.192300
     35 C51        -21.1720   -17.8610    12.7030 c5         1 ZJP      -0.095400
     36 C52        -20.3560   -17.4490    11.4440 c5         1 ZJP      -0.076400
     37 C53        -20.5160   -18.6520    10.4580 c5         1 ZJP      -0.076400
     38 C54        -21.2680   -19.7570    11.2670 c5         1 ZJP      -0.095400
     39 N03        -14.6910   -19.1570    16.2730 n          1 ZJP      -0.388800
     40 N10        -12.9890   -21.4550    15.1860 ns         1 ZJP      -0.465900
     41 N17        -17.8670   -19.8620    14.3990 ns         1 ZJP      -0.483900
     42 N26        -12.1120   -15.1160    17.6730 nb         1 ZJP      -0.757000
     43 N30        -10.4960   -14.6600    15.3480 nb         1 ZJP      -0.615000
     44 N37        -10.3670   -22.8310    14.7820 ns         1 ZJP      -0.569300
     45 O07        -13.5990   -16.4020    16.3280 os         1 ZJP      -0.444300
     46 O09        -11.9060   -21.1570    17.1820 o          1 ZJP      -0.574100
     47 O16        -15.1200   -19.9900    14.1850 o          1 ZJP      -0.627100
     48 O20        -19.5830   -19.7210    13.0110 os         1 ZJP      -0.453100
     49 O21        -19.9210   -19.3270    15.2660 o          1 ZJP      -0.556000
     50 O35         -9.0050   -12.4900    20.2600 os         1 ZJP      -0.335100
     51 O38        -11.2160   -24.3220    16.2680 o          1 ZJP      -0.545100
     52 O40         -8.5020   -23.0540    16.5070 o          1 ZJP      -0.514500
     53 O41         -8.2450   -24.0620    14.1860 o          1 ZJP      -0.514500
     54 S39         -8.7370   -22.9910    15.0600 s6         1 ZJP       1.251800
     55 H131       -14.9560   -23.1700    15.1880 hc         1 ZJP       0.098700
     56 H151       -17.3960   -19.0110    16.2510 h1         1 ZJP       0.080700
     57 H222       -15.5600   -21.1740    17.7280 hc         1 ZJP       0.047700
     58 H221       -16.9790   -20.4180    18.4320 hc         1 ZJP       0.047700
     59 H011       -12.8400   -18.8010    15.2510 h1         1 ZJP       0.075700
     60 H022       -12.8370   -19.0250    18.3550 hc         1 ZJP       0.078700
     61 H021       -11.7250   -18.0870    17.3710 hc         1 ZJP       0.078700
     62 H051       -13.8520   -16.7340    18.4160 h1         1 ZJP       0.091700
     63 H062       -15.8870   -17.4220    16.7550 h1         1 ZJP       0.077200
     64 H061       -15.5280   -18.4950    18.1280 h1         1 ZJP       0.077200
     65 H141       -12.7920   -24.3830    13.3460 hc         1 ZJP       0.089700
     66 H142       -13.7930   -22.8870    13.0270 hc         1 ZJP       0.089700
     67 H181       -18.4030   -21.3020    16.5720 hc         1 ZJP       0.058700
     68 H182       -16.9920   -22.0150    15.8090 hc         1 ZJP       0.058700
     69 H231       -18.0600   -22.6450    18.7240 hc         1 ZJP       0.040700
     70 H232       -16.5620   -22.4880    19.6220 hc         1 ZJP       0.040700
     71 H291       -11.2230   -14.0080    19.8220 ha         1 ZJP       0.134000
     72 H311        -8.3750   -13.1910    15.8200 ha         1 ZJP       0.135000
     73 H321       -11.4410   -15.4820    13.1290 hc         1 ZJP       0.061033
     74 H322       -11.7480   -17.0500    13.8950 hc         1 ZJP       0.061033
     75 H323       -13.0600   -15.8690    13.7270 hc         1 ZJP       0.061033
     76 H341        -7.7230   -12.2310    18.0160 ha         1 ZJP       0.134000
     77 H363        -9.2350   -12.1380    22.3070 h1         1 ZJP       0.044700
     78 H362       -10.7540   -12.2530    21.3950 h1         1 ZJP       0.044700
     79 H361        -9.8090   -13.7240    21.7540 h1         1 ZJP       0.044700
     80 H431        -6.0710   -22.2370    13.8510 hc         1 ZJP       0.088700
     81 H432        -6.0580   -20.4190    14.0530 hc         1 ZJP       0.088700
     82 H442        -8.0220   -22.0460    12.2690 hc         1 ZJP       0.088700
     83 H441        -8.0120   -20.2290    12.4720 hc         1 ZJP       0.088700
     84 H451        -8.1970   -19.2210    14.8660 hc         1 ZJP       0.053033
     85 H452        -9.6990   -20.1010    15.1660 hc         1 ZJP       0.053033
     86 H453        -8.3360   -20.2600    16.2900 hc         1 ZJP       0.053033
     87 H461       -13.7390   -25.8980    15.2150 ha         1 ZJP       0.187000
     88 H471       -14.4660   -26.1730    17.5280 ha         1 ZJP       0.170000
     89 H481       -14.5810   -24.2490    19.0130 hc         1 ZJP       0.056200
     90 H482       -14.4380   -23.1220    17.6870 hc         1 ZJP       0.056200
     91 H492       -16.8220   -23.9680    16.9420 hc         1 ZJP       0.039700
     92 H491       -16.8980   -24.7370    18.5110 hc         1 ZJP       0.039700
     93 H501       -21.6410   -19.9250    13.4490 h1         1 ZJP       0.071700
     94 H511       -20.8240   -17.3540    13.6090 hc         1 ZJP       0.057200
     95 H512       -22.2330   -17.6080    12.5860 hc         1 ZJP       0.057200
     96 H521       -19.3000   -17.2940    11.6960 hc         1 ZJP       0.045700
     97 H522       -20.7180   -16.5090    11.0120 hc         1 ZJP       0.045700
     98 H531       -21.0730   -18.3710     9.5570 hc         1 ZJP       0.045700
     99 H532       -19.5340   -19.0080    10.1220 hc         1 ZJP       0.045700
    100 H541       -22.3460   -19.7210    11.0680 hc         1 ZJP       0.057200
    101 H542       -20.9310   -20.7670    11.0070 hc         1 ZJP       0.057200
    102 H101       -13.6060   -20.9750    14.5320 hn         1 ZJP       0.324500
    103 H171       -17.3990   -20.0650    13.5230 hn         1 ZJP       0.334500
    104 H371       -10.5720   -22.1120    14.1110 hn         1 ZJP       0.340500
@<TRIPOS>BOND
     1     1    12 1   
     2     1    14 1   
     3     1    30 1   
     4     1    55 1   
     5     2    11 1   
     6     2    15 1   
     7     2    41 1   
     8     2    56 1   
     9     3    15 1   
    10     3    17 1   
    11     3    57 1   
    12     3    58 1   
    13     4    18 ar  
    14     4    42 ar  
    15     4    45 1   
    16     5    19 ar  
    17     5    21 ar  
    18     5    43 ar  
    19     6     7 1   
    20     6     8 1   
    21     6    39 1   
    22     6    59 1   
    23     7     9 1   
    24     7    60 1   
    25     7    61 1   
    26     8    40 1   
    27     8    46 2   
    28     9    10 1   
    29     9    45 1   
    30     9    62 1   
    31    10    39 1   
    32    10    63 1   
    33    10    64 1   
    34    11    39 1   
    35    11    47 2   
    36    12    13 1   
    37    12    14 1   
    38    12    40 1   
    39    13    44 1   
    40    13    51 2   
    41    14    65 1   
    42    14    66 1   
    43    15    67 1   
    44    15    68 1   
    45    16    41 1   
    46    16    48 1   
    47    16    49 2   
    48    17    33 1   
    49    17    69 1   
    50    17    70 1   
    51    18    22 1   
    52    18    43 ar  
    53    19    20 ar  
    54    19    42 ar  
    55    20    23 ar  
    56    20    71 1   
    57    21    24 ar  
    58    21    72 1   
    59    22    73 1   
    60    22    74 1   
    61    22    75 1   
    62    23    24 ar  
    63    23    50 1   
    64    24    76 1   
    65    25    50 1   
    66    25    77 1   
    67    25    78 1   
    68    25    79 1   
    69    26    27 1   
    70    26    28 1   
    71    26    29 1   
    72    26    54 1   
    73    27    28 1   
    74    27    80 1   
    75    27    81 1   
    76    28    82 1   
    77    28    83 1   
    78    29    84 1   
    79    29    85 1   
    80    29    86 1   
    81    30    31 2   
    82    30    87 1   
    83    31    32 1   
    84    31    88 1   
    85    32    33 1   
    86    32    89 1   
    87    32    90 1   
    88    33    91 1   
    89    33    92 1   
    90    34    35 1   
    91    34    38 1   
    92    34    48 1   
    93    34    93 1   
    94    35    36 1   
    95    35    94 1   
    96    35    95 1   
    97    36    37 1   
    98    36    96 1   
    99    36    97 1   
   100    37    38 1   
   101    37    98 1   
   102    37    99 1   
   103    38   100 1   
   104    38   101 1   
   105    40   102 1   
   106    41   103 1   
   107    44    54 1   
   108    44   104 1   
   109    52    54 2   
   110    53    54 2   
@<TRIPOS>SUBSTRUCTURE
     1 ZJP         1 TEMP              0 ****  ****    0 ROOT
