@<TRIPOS>MOLECULE
ZJR
   34    35     1     0     0
SMALL
No Charge or Current Charge


@<TRIPOS>ATOM
      1 N1         -16.1330    17.6960    26.4150 ns         1 ZJR      -0.511900
      2 N3         -19.5010    13.8160    25.9150 n          1 ZJR      -0.408800
      3 C4         -14.2250    19.7430    24.4240 c1         1 ZJR      -0.221000
      4 C5         -18.5850    15.2550    27.7930 c6         1 ZJR       0.084000
      5 C6         -19.0820    13.8620    27.3430 c6         1 ZJR       0.091500
      6 C7         -18.4140    14.3040    25.0280 c6         1 ZJR       0.091500
      7 C8         -17.8470    15.6920    25.4200 c6         1 ZJR       0.084000
      8 C10        -21.6130    12.5130    26.2610 cc         1 ZJR       0.061500
      9 C13        -23.2220    12.6410    27.7860 cc         1 ZJR       0.146900
     10 C1         -16.8390    16.9940    27.3560 c          1 ZJR       0.648100
     11 C11        -22.5330    11.5410    25.9640 cd         1 ZJR      -0.104000
     12 C12        -23.5470    11.6170    26.9400 cd         1 ZJR      -0.195000
     13 C2         -15.2870    18.8450    26.7120 c3         1 ZJR       0.188100
     14 C3         -14.6970    19.3490    25.4670 c1         1 ZJR      -0.165100
     15 C9         -20.4050    12.8310    25.4310 c          1 ZJR       0.545600
     16 N2         -17.6040    15.9090    26.8800 n          1 ZJR      -0.417800
     17 O1         -16.7990    17.2960    28.5380 o          1 ZJR      -0.644100
     18 O2         -20.2100    12.2950    24.3450 o          1 ZJR      -0.595100
     19 O3         -22.0380    13.2140    27.3750 os         1 ZJR      -0.248000
     20 H1         -16.2060    17.3930    25.4550 hn         1 ZJR       0.309500
     21 H4         -13.7990    20.1010    23.5070 ha         1 ZJR       0.256000
     22 H5         -18.1450    15.1530    28.7960 h1         1 ZJR       0.058700
     23 H6         -19.4550    15.9190    27.8910 h1         1 ZJR       0.058700
     24 H8         -18.2530    13.1510    27.4710 h1         1 ZJR       0.065700
     25 H7         -19.8660    13.5320    28.0300 h1         1 ZJR       0.065700
     26 H9         -17.5950    13.5710    25.0490 h1         1 ZJR       0.065700
     27 H10        -18.7700    14.3570    23.9890 h1         1 ZJR       0.065700
     28 H12        -16.9150    15.8370    24.8560 h1         1 ZJR       0.058700
     29 H11        -18.5550    16.4610    25.0790 h1         1 ZJR       0.058700
     30 H15        -23.7110    13.0500    28.6600 h4         1 ZJR       0.056100
     31 H13        -22.4850    10.8480    25.1280 ha         1 ZJR       0.157000
     32 H14        -24.4310    10.9900    27.0100 ha         1 ZJR       0.148000
     33 H2         -15.8900    19.6340    27.1830 h1         1 ZJR       0.073200
     34 H3         -14.4900    18.5460    27.4060 h1         1 ZJR       0.073200
@<TRIPOS>BOND
     1     1    10 1   
     2     1    13 1   
     3     1    20 1   
     4     2     5 1   
     5     2     6 1   
     6     2    15 1   
     7     3    14 3   
     8     3    21 1   
     9     4     5 1   
    10     4    16 1   
    11     4    22 1   
    12     4    23 1   
    13     5    24 1   
    14     5    25 1   
    15     6     7 1   
    16     6    26 1   
    17     6    27 1   
    18     7    16 1   
    19     7    28 1   
    20     7    29 1   
    21     8    11 2   
    22     8    15 1   
    23     8    19 1   
    24     9    12 2   
    25     9    19 1   
    26     9    30 1   
    27    10    16 1   
    28    10    17 2   
    29    11    12 1   
    30    11    31 1   
    31    12    32 1   
    32    13    14 1   
    33    13    33 1   
    34    13    34 1   
    35    15    18 2   
@<TRIPOS>SUBSTRUCTURE
     1 ZJR         1 TEMP              0 ****  ****    0 ROOT
