@<TRIPOS>MOLECULE
ZJR
   34    35     1     0     0
SMALL
abcg2


@<TRIPOS>ATOM
      1 N1         -16.1230    17.4690    26.2700 ns         1 ZJR      -0.511900
      2 N3         -19.2820    13.5830    25.9510 n          1 ZJR      -0.408800
      3 C4         -14.7410    20.3020    24.8190 c1         1 ZJR      -0.221000
      4 C5         -18.7950    15.3390    27.5830 c6         1 ZJR       0.084000
      5 C6         -19.0350    13.8540    27.3640 c6         1 ZJR       0.091500
      6 C7         -18.1740    14.0080    25.1070 c6         1 ZJR       0.091500
      7 C8         -17.9080    15.4970    25.3020 c6         1 ZJR       0.084000
      8 C10        -21.5100    12.6110    26.2270 cc         1 ZJR       0.061500
      9 C13        -23.1080    13.0590    27.6710 cc         1 ZJR       0.146900
     10 C1         -16.9760    16.8840    27.1650 c          1 ZJR       0.648100
     11 C11        -22.4190    11.5990    26.1350 cd         1 ZJR      -0.104000
     12 C12        -23.4500    11.8840    27.0790 cd         1 ZJR      -0.195000
     13 C2         -15.1760    18.4800    26.7110 c3         1 ZJR       0.188100
     14 C3         -14.9440    19.4850    25.6760 c1         1 ZJR      -0.165100
     15 C9         -20.2940    12.8520    25.4250 c          1 ZJR       0.545600
     16 N2         -17.7180    15.8160    26.7160 n          1 ZJR      -0.417800
     17 O1         -17.0730    17.3020    28.3240 o          1 ZJR      -0.644100
     18 O2         -20.2530    12.3910    24.2780 o          1 ZJR      -0.595100
     19 O3         -21.9310    13.5170    27.1670 os         1 ZJR      -0.248000
     20 H1         -15.9000    17.0000    25.4090 hn         1 ZJR       0.309500
     21 H4         -14.5620    21.0330    24.0640 ha         1 ZJR       0.256000
     22 H5         -18.5130    15.5190    28.6150 h1         1 ZJR       0.058700
     23 H6         -19.7200    15.8910    27.3750 h1         1 ZJR       0.058700
     24 H8         -18.1420    13.2940    27.6610 h1         1 ZJR       0.065700
     25 H7         -19.8650    13.5200    27.9730 h1         1 ZJR       0.065700
     26 H9         -17.2790    13.4340    25.3670 h1         1 ZJR       0.065700
     27 H10        -18.4240    13.8110    24.0690 h1         1 ZJR       0.065700
     28 H12        -17.0230    15.7420    24.7210 h1         1 ZJR       0.058700
     29 H11        -18.7480    16.0730    24.8980 h1         1 ZJR       0.058700
     30 H15        -23.5700    13.6750    28.4230 h4         1 ZJR       0.056100
     31 H13        -22.3550    10.7530    25.4710 ha         1 ZJR       0.157000
     32 H14        -24.3280    11.2960    27.2850 ha         1 ZJR       0.148000
     33 H2         -15.5880    18.9510    27.6030 h1         1 ZJR       0.073200
     34 H3         -14.2190    18.0310    26.9990 h1         1 ZJR       0.073200
@<TRIPOS>BOND
     1     1    10 1   
     2     1    13 1   
     3     1    20 1   
     4     2     5 1   
     5     2     6 1   
     6     2    15 1   
     7     3    14 3   
     8     3    21 1   
     9     4     5 1   
    10     4    16 1   
    11     4    22 1   
    12     4    23 1   
    13     5    24 1   
    14     5    25 1   
    15     6     7 1   
    16     6    26 1   
    17     6    27 1   
    18     7    16 1   
    19     7    28 1   
    20     7    29 1   
    21     8    11 2   
    22     8    15 1   
    23     8    19 1   
    24     9    12 2   
    25     9    19 1   
    26     9    30 1   
    27    10    16 1   
    28    10    17 2   
    29    11    12 1   
    30    11    31 1   
    31    12    32 1   
    32    13    14 1   
    33    13    33 1   
    34    13    34 1   
    35    15    18 2   
@<TRIPOS>SUBSTRUCTURE
     1 ZJR         1 TEMP              0 ****  ****    0 ROOT
