@<TRIPOS>MOLECULE
ZJT
   25    27     1     0     0
SMALL
No Charge or Current Charge


@<TRIPOS>ATOM
      1 C10         -0.4390    51.2460   -10.3650 ca         1 ZJT      -0.151000
      2 C13         -2.2880    52.6230    -9.5830 ca         1 ZJT      -0.152000
      3 C15         -4.5410    52.6360   -10.7760 c6         1 ZJT      -0.026100
      4 C04         -4.6110    49.7090   -14.5860 cc         1 ZJT      -0.198600
      5 C05         -5.4610    50.3230   -13.6870 cd         1 ZJT      -0.157000
      6 C06         -4.7890    50.8770   -12.5630 cd         1 ZJT      -0.090300
      7 C07         -3.4330    50.6800   -12.6160 cc         1 ZJT      -0.262000
      8 C08         -2.5800    51.1870   -11.5400 ca         1 ZJT       0.038000
      9 C09         -1.2450    50.7510   -11.4060 ca         1 ZJT      -0.096000
     10 C11         -0.9630    52.1790    -9.4580 ca         1 ZJT       0.135000
     11 C14         -3.1030    52.1270   -10.6190 ca         1 ZJT      -0.060300
     12 C16         -5.4790    51.5870   -11.4190 c6         1 ZJT      -0.005100
     13 F12         -0.1860    52.6560    -8.4620 f          1 ZJT      -0.199000
     14 O01         -6.2080    49.0300   -16.1430 o          1 ZJT      -0.705500
     15 O03         -4.1600    48.5400   -16.5490 o          1 ZJT      -0.705500
     16 S17         -2.9340    49.7940   -14.0550 ss         1 ZJT       0.239000
     17 H1           0.5890    50.9080   -10.2620 ha         1 ZJT       0.119000
     18 H2          -2.6780    53.3520    -8.8780 ha         1 ZJT       0.115000
     19 H3          -4.5240    53.5350   -11.4070 hc         1 ZJT       0.041700
     20 H4          -4.9490    52.9480    -9.8060 hc         1 ZJT       0.041700
     21 H5          -6.5380    50.3770   -13.8230 ha         1 ZJT       0.138000
     22 H6          -0.8300    50.0270   -12.1010 ha         1 ZJT       0.123000
     23 H7          -6.4060    52.0710   -11.7550 hc         1 ZJT       0.042700
     24 H8          -5.7720    50.8500   -10.6580 hc         1 ZJT       0.042700
     25 C02         -5.0220    49.0480   -15.8470 c          1 ZJT       0.732600
@<TRIPOS>BOND
     1     1     9 ar  
     2     1    10 ar  
     3     1    17 1   
     4     2    10 ar  
     5     2    11 ar  
     6     2    18 1   
     7     3    11 1   
     8     3    12 1   
     9     3    19 1   
    10     3    20 1   
    11     4     5 2   
    12     4    16 1   
    13     4    25 1   
    14     5     6 1   
    15     5    21 1   
    16     6     7 2   
    17     6    12 1   
    18     7     8 1   
    19     7    16 1   
    20     8     9 ar  
    21     8    11 ar  
    22     9    22 1   
    23    10    13 1   
    24    12    23 1   
    25    12    24 1   
    26    14    25 1   
    27    15    25 1   
@<TRIPOS>SUBSTRUCTURE
     1 ZJT         1 TEMP              0 ****  ****    0 ROOT
