@<TRIPOS>MOLECULE
ZJT
   25    27     1     0     0
SMALL
abcg2


@<TRIPOS>ATOM
      1 C10         -0.4670    51.2240   -10.4040 ca         1 ZJT      -0.151000
      2 C13         -2.3040    52.5750    -9.5960 ca         1 ZJT      -0.152000
      3 C15         -4.5090    52.6540   -10.8160 c6         1 ZJT      -0.026100
      4 C04         -4.6560    49.7430   -14.5460 cc         1 ZJT      -0.198600
      5 C05         -5.5110    50.3300   -13.6580 cd         1 ZJT      -0.157000
      6 C06         -4.8500    50.9140   -12.5490 cd         1 ZJT      -0.090300
      7 C07         -3.4890    50.7540   -12.6120 cc         1 ZJT      -0.262000
      8 C08         -2.5910    51.2130   -11.5660 ca         1 ZJT       0.038000
      9 C09         -1.2760    50.7730   -11.4350 ca         1 ZJT      -0.096000
     10 C11         -1.0030    52.1180    -9.4990 ca         1 ZJT       0.135000
     11 C14         -3.1090    52.1300   -10.6340 ca         1 ZJT      -0.060300
     12 C16         -5.4640    51.5970   -11.3650 c6         1 ZJT      -0.005100
     13 F12         -0.2370    52.5590    -8.4870 f          1 ZJT      -0.199000
     14 O01         -6.1390    48.9360   -16.1660 o          1 ZJT      -0.705500
     15 O03         -3.9390    48.5930   -16.4390 o          1 ZJT      -0.705500
     16 S17         -3.0200    49.8990   -14.0300 ss         1 ZJT       0.239000
     17 H1           0.5530    50.8780   -10.3030 ha         1 ZJT       0.119000
     18 H2          -2.6870    53.2800    -8.8680 ha         1 ZJT       0.115000
     19 H3          -4.4710    53.4940   -11.5190 hc         1 ZJT       0.041700
     20 H4          -4.8850    53.0550    -9.8740 hc         1 ZJT       0.041700
     21 H5          -6.5840    50.3440   -13.7970 ha         1 ZJT       0.138000
     22 H6          -0.8700    50.0570   -12.1400 ha         1 ZJT       0.123000
     23 H7          -6.4140    52.0610   -11.6330 hc         1 ZJT       0.042700
     24 H8          -5.6870    50.8560   -10.5890 hc         1 ZJT       0.042700
     25 C02         -4.9420    49.0250   -15.8390 c          1 ZJT       0.732600
@<TRIPOS>BOND
     1     1     9 ar  
     2     1    10 ar  
     3     1    17 1   
     4     2    10 ar  
     5     2    11 ar  
     6     2    18 1   
     7     3    11 1   
     8     3    12 1   
     9     3    19 1   
    10     3    20 1   
    11     4     5 2   
    12     4    16 1   
    13     4    25 1   
    14     5     6 1   
    15     5    21 1   
    16     6     7 2   
    17     6    12 1   
    18     7     8 1   
    19     7    16 1   
    20     8     9 ar  
    21     8    11 ar  
    22     9    22 1   
    23    10    13 1   
    24    12    23 1   
    25    12    24 1   
    26    14    25 1   
    27    15    25 1   
@<TRIPOS>SUBSTRUCTURE
     1 ZJT         1 TEMP              0 ****  ****    0 ROOT
