@<TRIPOS>MOLECULE
ZJU
   24    23     1     0     0
SMALL
No Charge or Current Charge


@<TRIPOS>ATOM
      1 O1           5.1350     1.4000    -0.6130 o          1 ZJU      -0.773000
      2 C1           4.3470     1.2140     0.3010 c          1 ZJU       0.713000
      3 O2           4.6830     0.8280     1.4100 o          1 ZJU      -0.773000
      4 C2           2.8470     1.4170     0.0240 c3         1 ZJU      -0.193400
      5 C3           2.2000     0.1000    -0.4900 c3         1 ZJU      -0.133400
      6 C4           0.6980     0.2660    -0.7780 c          1 ZJU       0.588100
      7 O3           0.2770     0.8630    -1.7610 o          1 ZJU      -0.661100
      8 N           -0.1360    -0.3350     0.1410 ns         1 ZJU      -0.460900
      9 CA          -1.6180    -0.3660     0.0720 c3         1 ZJU      -0.023300
     10 CB          -2.1100    -1.5260    -0.8390 c3         1 ZJU      -0.186400
     11 CG          -3.6340    -1.4150    -1.0520 c          1 ZJU       0.744000
     12 OD2         -4.0420    -0.7090    -1.9620 o          1 ZJU      -0.769500
     13 OD1         -4.3720    -2.0210    -0.2900 o          1 ZJU      -0.769500
     14 C           -2.2260    -0.4240     1.5140 c          1 ZJU       0.726000
     15 OXT         -2.9840     0.4750     1.8540 o          1 ZJU      -0.750000
     16 O           -1.8030    -1.2660     2.2980 o          1 ZJU      -0.750000
     17 H6           2.3190     1.6660     0.9530 hc         1 ZJU       0.037200
     18 H3           2.7060     2.1540    -0.7750 hc         1 ZJU       0.037200
     19 H4           2.7070    -0.1940    -1.4180 hc         1 ZJU       0.031700
     20 H5           2.3510    -0.6760     0.2710 hc         1 ZJU       0.031700
     21 H            0.3090    -0.8020     0.9230 hn         1 ZJU       0.276500
     22 HA          -1.9510     0.5810    -0.3710 h1         1 ZJU       0.069700
     23 HB2         -1.5870    -1.3910    -1.7950 hc         1 ZJU      -0.005800
     24 HB3         -1.8460    -2.4600    -0.3260 hc         1 ZJU      -0.005800
@<TRIPOS>BOND
     1     1     2 1   
     2     2     3 1   
     3     2     4 1   
     4     4     5 1   
     5     4    17 1   
     6     4    18 1   
     7     5     6 1   
     8     5    19 1   
     9     5    20 1   
    10     6     7 2   
    11     6     8 1   
    12     8     9 1   
    13     8    21 1   
    14     9    10 1   
    15     9    14 1   
    16     9    22 1   
    17    10    11 1   
    18    10    23 1   
    19    10    24 1   
    20    11    12 1   
    21    11    13 1   
    22    14    15 1   
    23    14    16 1   
@<TRIPOS>SUBSTRUCTURE
     1 ZJU         1 TEMP              0 ****  ****    0 ROOT
