@<TRIPOS>MOLECULE
ZJU
   24    23     1     0     0
SMALL
abcg2


@<TRIPOS>ATOM
      1 O1           4.9190     0.6710    -0.7130 o          1 ZJU      -0.773000
      2 C1           4.4460     1.0050     0.3920 c          1 ZJU       0.713000
      3 O2           5.0880     1.2980     1.4210 o          1 ZJU      -0.773000
      4 C2           2.9110     1.1100     0.5040 c3         1 ZJU      -0.193400
      5 C3           2.1360     0.3190    -0.5400 c3         1 ZJU      -0.133400
      6 C4           0.6510     0.6100    -0.4960 c          1 ZJU       0.588100
      7 O3           0.2200     1.7590    -0.5050 o          1 ZJU      -0.661100
      8 N           -0.1570    -0.4590    -0.4920 ns         1 ZJU      -0.460900
      9 CA          -1.5930    -0.3470    -0.3380 c3         1 ZJU      -0.023300
     10 CB          -2.2330    -1.7060    -0.6280 c3         1 ZJU      -0.186400
     11 CG          -3.7600    -1.6430    -0.8420 c          1 ZJU       0.744000
     12 OD2         -4.1590    -0.8660    -1.7340 o          1 ZJU      -0.769500
     13 OD1         -4.4650    -2.3950    -0.1410 o          1 ZJU      -0.769500
     14 C           -2.0020     0.1370     1.0780 c          1 ZJU       0.726000
     15 OXT         -3.1260     0.6710     1.1620 o          1 ZJU      -0.750000
     16 O           -1.2060    -0.0870     2.0080 o          1 ZJU      -0.750000
     17 H6           2.6010     0.8110     1.5090 hc         1 ZJU       0.037200
     18 H3           2.6460     2.1700     0.4200 hc         1 ZJU       0.037200
     19 H4           2.4970     0.5890    -1.5360 hc         1 ZJU       0.031700
     20 H5           2.3280    -0.7500    -0.4240 hc         1 ZJU       0.031700
     21 H            0.2600    -1.3660    -0.3640 hn         1 ZJU       0.276500
     22 HA          -1.9630     0.3630    -1.0800 h1         1 ZJU       0.069700
     23 HB2         -1.7850    -2.1080    -1.5450 hc         1 ZJU      -0.005800
     24 HB3         -1.9840    -2.4080     0.1740 hc         1 ZJU      -0.005800
@<TRIPOS>BOND
     1     1     2 1   
     2     2     3 1   
     3     2     4 1   
     4     4     5 1   
     5     4    17 1   
     6     4    18 1   
     7     5     6 1   
     8     5    19 1   
     9     5    20 1   
    10     6     7 2   
    11     6     8 1   
    12     8     9 1   
    13     8    21 1   
    14     9    10 1   
    15     9    14 1   
    16     9    22 1   
    17    10    11 1   
    18    10    23 1   
    19    10    24 1   
    20    11    12 1   
    21    11    13 1   
    22    14    15 1   
    23    14    16 1   
@<TRIPOS>SUBSTRUCTURE
     1 ZJU         1 TEMP              0 ****  ****    0 ROOT
