@<TRIPOS>MOLECULE
ZJV
  100   105     1     0     0
SMALL
abcg2


@<TRIPOS>ATOM
      1 C10        -13.4370   -15.7920    15.9050 ca         1 ZJV       0.554300
      2 C13        -12.0960   -13.5530    15.3910 ca         1 ZJV       0.167000
      3 C15        -13.8250   -14.9360    14.8140 ca         1 ZJV       0.321300
      4 C17         -9.9280   -12.9280    17.0450 ca         1 ZJV       0.165100
      5 C21         -8.4660   -13.3180    18.8660 c3         1 ZJV       0.145900
      6 C22        -12.0650   -22.8350    14.1660 cx         1 ZJV      -0.069600
      7 C24        -13.2910   -23.7320    13.9510 cx         1 ZJV      -0.035500
      8 C01        -13.5280   -19.6480    15.5430 c5         1 ZJV       0.031700
      9 C02        -12.7600   -18.7660    16.5350 c5         1 ZJV      -0.110400
     10 C03        -13.8360   -17.8320    17.0700 c5         1 ZJV       0.165300
     11 C04        -15.0320   -18.7520    17.2120 c5         1 ZJV       0.106000
     12 C06        -13.0090   -21.0790    15.5210 c          1 ZJV       0.590100
     13 C12        -11.7280   -14.4080    16.4470 ca         1 ZJV       0.306000
     14 C16        -10.6360   -14.0880    17.2740 ca         1 ZJV      -0.203000
     15 C18        -10.2930   -12.0680    15.9800 ca         1 ZJV      -0.140000
     16 C19        -11.3520   -12.3770    15.1740 ca         1 ZJV      -0.029000
     17 C30         -8.6000   -21.5670    17.4940 cx         1 ZJV      -0.399000
     18 C31         -7.1910   -21.1230    17.7590 cx         1 ZJV      -0.078400
     19 C32         -8.0680   -20.3100    16.8680 cx         1 ZJV      -0.078400
     20 C33         -9.6390   -21.5170    18.5850 c3         1 ZJV      -0.043100
     21 C34        -13.4280   -25.0960    14.4990 c2         1 ZJV      -0.192200
     22 C35        -12.4040   -23.3890    12.8100 cx         1 ZJV      -0.094400
     23 C36        -14.4090   -25.4840    15.3170 c2         1 ZJV      -0.189200
     24 C37        -15.8370   -20.3420    15.4360 c          1 ZJV       0.602100
     25 C38        -17.2270   -20.4480    16.0690 c3         1 ZJV       0.066700
     26 C44        -17.4430   -21.8810    16.5640 c3         1 ZJV      -0.089400
     27 C45        -16.5310   -22.2680    17.7240 c3         1 ZJV      -0.079400
     28 C46        -15.4620   -24.5940    17.4150 c3         1 ZJV      -0.074400
     29 C47        -15.5090   -24.6430    15.8850 c3         1 ZJV      -0.048200
     30 C48        -19.4730   -17.6610    12.8820 c3         1 ZJV       0.127300
     31 C49        -19.2070   -17.8140    11.3980 c3         1 ZJV      -0.107100
     32 C50        -20.9200   -17.3190    13.2000 c3         1 ZJV       0.289000
     33 C54        -14.9840   -15.2930    13.9430 c3         1 ZJV      -0.138400
     34 C55        -16.5690   -23.7650    18.0670 c3         1 ZJV      -0.066400
     35 F51        -21.1290   -17.2560    14.5190 f          1 ZJV      -0.110000
     36 F52        -21.7800   -18.2200    12.7100 f          1 ZJV      -0.110000
     37 F53        -21.2520   -16.1300    12.6860 f          1 ZJV      -0.110000
     38 N05        -14.8860   -19.6400    16.0670 n          1 ZJV      -0.385800
     39 N08        -12.3460   -21.4580    14.4050 ns         1 ZJV      -0.472900
     40 N11        -12.4310   -15.5470    16.6770 nb         1 ZJV      -0.756000
     41 N14        -13.1490   -13.8510    14.5890 nb         1 ZJV      -0.614000
     42 N25        -10.1810   -22.5320    15.6370 ns         1 ZJV      -0.564300
     43 N40        -18.2300   -20.1370    15.0780 ns         1 ZJV      -0.481900
     44 O07        -13.1590   -21.8190    16.4740 o          1 ZJV      -0.570100
     45 O09        -14.1980   -16.8680    16.0800 os         1 ZJV      -0.446300
     46 O20         -8.8790   -12.5200    17.7740 os         1 ZJV      -0.334100
     47 O26        -10.5160   -24.5640    14.7010 o          1 ZJV      -0.547100
     48 O28         -9.0260   -24.1560    17.2210 o          1 ZJV      -0.515000
     49 O29         -7.6770   -23.0090    15.4600 o          1 ZJV      -0.515000
     50 O39        -15.5970   -20.9420    14.3960 o          1 ZJV      -0.618100
     51 O42        -19.2170   -18.8890    13.5440 os         1 ZJV      -0.452100
     52 O43        -17.5360   -18.0060    14.7790 o          1 ZJV      -0.539000
     53 S27         -8.7590   -22.9700    16.4290 s6         1 ZJV       1.250800
     54 H211        -7.6200   -12.8070    19.3200 h1         1 ZJV       0.044700
     55 H212        -9.2570   -13.4260    19.6120 h1         1 ZJV       0.044700
     56 H213        -8.1470   -14.3130    18.5440 h1         1 ZJV       0.044700
     57 H241       -14.1930   -23.1340    13.9940 hc         1 ZJV       0.101700
     58 H011       -13.5050   -19.2120    14.5400 h1         1 ZJV       0.077700
     59 H021       -12.3760   -19.3600    17.3680 hc         1 ZJV       0.075700
     60 H022       -11.9190   -18.2500    16.0750 hc         1 ZJV       0.075700
     61 H031       -13.5650   -17.3440    18.0060 h1         1 ZJV       0.091700
     62 H041       -15.9720   -18.2040    17.1900 h1         1 ZJV       0.074700
     63 H042       -14.9700   -19.2970    18.1570 h1         1 ZJV       0.074700
     64 H161       -10.3900   -14.7730    18.0740 ha         1 ZJV       0.133000
     65 H181        -9.7230   -11.1630    15.8180 ha         1 ZJV       0.135000
     66 H191       -11.6360   -11.7210    14.3610 ha         1 ZJV       0.136000
     67 H311        -6.3700   -21.6630    17.3070 hc         1 ZJV       0.088200
     68 H312        -6.9980   -20.7750    18.7650 hc         1 ZJV       0.088200
     69 H321        -7.8440   -20.3000    15.8090 hc         1 ZJV       0.088200
     70 H322        -8.4910   -19.3870    17.2450 hc         1 ZJV       0.088200
     71 H331        -9.4760   -20.6250    19.1900 hc         1 ZJV       0.053700
     72 H332       -10.6510   -21.4620    18.1840 hc         1 ZJV       0.053700
     73 H333        -9.5690   -22.3820    19.2410 hc         1 ZJV       0.053700
     74 H341       -12.6980   -25.8310    14.1870 ha         1 ZJV       0.192000
     75 H351       -11.7430   -24.1540    12.4220 hc         1 ZJV       0.088700
     76 H352       -12.7630   -22.6820    12.0730 hc         1 ZJV       0.088700
     77 H361       -14.4150   -26.5260    15.6250 ha         1 ZJV       0.169000
     78 H381       -17.3340   -19.7690    16.9180 h1         1 ZJV       0.072700
     79 H442       -18.4850   -21.9740    16.8840 hc         1 ZJV       0.058700
     80 H441       -17.3170   -22.5640    15.7200 hc         1 ZJV       0.058700
     81 H452       -15.4960   -21.9820    17.5170 hc         1 ZJV       0.050200
     82 H451       -16.8300   -21.6830    18.5980 hc         1 ZJV       0.050200
     83 H461       -15.5100   -25.6160    17.8030 hc         1 ZJV       0.048700
     84 H462       -14.4910   -24.1960    17.7230 hc         1 ZJV       0.048700
     85 H472       -15.4670   -23.6310    15.4850 hc         1 ZJV       0.045700
     86 H471       -16.4750   -25.0600    15.5780 hc         1 ZJV       0.045700
     87 H481       -18.8480   -16.8630    13.2910 h1         1 ZJV       0.103700
     88 H491       -18.1500   -18.0270    11.2450 hc         1 ZJV       0.063033
     89 H492       -19.7890   -18.6240    10.9600 hc         1 ZJV       0.063033
     90 H493       -19.4370   -16.8930    10.8660 hc         1 ZJV       0.063033
     91 H542       -15.0980   -14.5480    13.1590 hc         1 ZJV       0.061033
     92 H541       -14.8450   -16.2700    13.4780 hc         1 ZJV       0.061033
     93 H543       -15.9130   -15.3420    14.5140 hc         1 ZJV       0.061033
     94 H551       -17.5470   -24.1830    17.8080 hc         1 ZJV       0.037700
     95 H552       -16.4740   -23.8820    19.1480 hc         1 ZJV       0.037700
     96 H081       -12.2890   -20.8200    13.6250 hn         1 ZJV       0.323500
     97 H251       -10.3650   -21.5380    15.5540 hn         1 ZJV       0.337500
     98 H401       -18.8270   -20.8750    14.7380 hn         1 ZJV       0.344500
     99 C23        -10.8660   -23.4120    14.8400 c          1 ZJV       0.676100
    100 C41        -18.2660   -18.9310    14.4950 c          1 ZJV       0.647100
@<TRIPOS>BOND
     1     1     3 ar  
     2     1    40 ar  
     3     1    45 1   
     4     2    13 ar  
     5     2    16 ar  
     6     2    41 ar  
     7     3    33 1   
     8     3    41 ar  
     9     4    14 ar  
    10     4    15 ar  
    11     4    46 1   
    12     5    46 1   
    13     5    54 1   
    14     5    55 1   
    15     5    56 1   
    16     6     7 1   
    17     6    22 1   
    18     6    39 1   
    19     6    99 1   
    20     7    21 1   
    21     7    22 1   
    22     7    57 1   
    23     8     9 1   
    24     8    12 1   
    25     8    38 1   
    26     8    58 1   
    27     9    10 1   
    28     9    59 1   
    29     9    60 1   
    30    10    11 1   
    31    10    45 1   
    32    10    61 1   
    33    11    38 1   
    34    11    62 1   
    35    11    63 1   
    36    12    39 1   
    37    12    44 2   
    38    13    14 ar  
    39    13    40 ar  
    40    14    64 1   
    41    15    16 ar  
    42    15    65 1   
    43    16    66 1   
    44    17    18 1   
    45    17    19 1   
    46    17    20 1   
    47    17    53 1   
    48    18    19 1   
    49    18    67 1   
    50    18    68 1   
    51    19    69 1   
    52    19    70 1   
    53    20    71 1   
    54    20    72 1   
    55    20    73 1   
    56    21    23 2   
    57    21    74 1   
    58    22    75 1   
    59    22    76 1   
    60    23    29 1   
    61    23    77 1   
    62    24    25 1   
    63    24    38 1   
    64    24    50 2   
    65    25    26 1   
    66    25    43 1   
    67    25    78 1   
    68    26    27 1   
    69    26    79 1   
    70    26    80 1   
    71    27    34 1   
    72    27    81 1   
    73    27    82 1   
    74    28    29 1   
    75    28    34 1   
    76    28    83 1   
    77    28    84 1   
    78    29    85 1   
    79    29    86 1   
    80    30    31 1   
    81    30    32 1   
    82    30    51 1   
    83    30    87 1   
    84    31    88 1   
    85    31    89 1   
    86    31    90 1   
    87    32    35 1   
    88    32    36 1   
    89    32    37 1   
    90    33    91 1   
    91    33    92 1   
    92    33    93 1   
    93    34    94 1   
    94    34    95 1   
    95    39    96 1   
    96    42    53 1   
    97    42    97 1   
    98    42    99 1   
    99    43    98 1   
   100    43   100 1   
   101    47    99 2   
   102    48    53 2   
   103    49    53 2   
   104    51   100 1   
   105    52   100 2   
@<TRIPOS>SUBSTRUCTURE
     1 ZJV         1 TEMP              0 ****  ****    0 ROOT
