@<TRIPOS>MOLECULE
ZJV
  100   105     1     0     0
SMALL
No Charge or Current Charge


@<TRIPOS>ATOM
      1 C10        -12.5850   -15.7630    15.6950 ca         1 ZJV       0.554300
      2 C13        -10.3360   -14.2450    15.4000 ca         1 ZJV       0.167000
      3 C15        -12.0290   -15.4640    14.4080 ca         1 ZJV       0.321300
      4 C17         -9.1120   -13.2330    17.7480 ca         1 ZJV       0.165100
      5 C21         -8.9500   -12.9330    20.1940 c3         1 ZJV       0.145900
      6 C22        -12.1000   -22.7430    14.3340 cx         1 ZJV      -0.069600
      7 C24        -13.2670   -23.4930    13.7050 cx         1 ZJV      -0.035500
      8 C01        -13.4570   -19.4050    15.5850 c5         1 ZJV       0.031700
      9 C02        -12.7770   -18.5590    16.7080 c5         1 ZJV      -0.110400
     10 C03        -13.7870   -17.3930    16.9210 c5         1 ZJV       0.165300
     11 C04        -15.1500   -18.1410    16.8820 c5         1 ZJV       0.106000
     12 C06        -13.0020   -20.8900    15.7270 c          1 ZJV       0.590100
     13 C12        -10.9010   -14.5230    16.6920 ca         1 ZJV       0.306000
     14 C16        -10.2810   -14.0130    17.8440 ca         1 ZJV      -0.203000
     15 C18         -8.5620   -12.9630    16.4890 ca         1 ZJV      -0.140000
     16 C19         -9.1690   -13.4640    15.3250 ca         1 ZJV      -0.029000
     17 C30         -8.2320   -21.1910    17.1160 cx         1 ZJV      -0.399000
     18 C31         -6.7640   -21.0210    17.4650 cx         1 ZJV      -0.078400
     19 C32         -7.2800   -20.5460    16.1240 cx         1 ZJV      -0.078400
     20 C33         -9.2850   -20.3300    17.8260 c3         1 ZJV      -0.043100
     21 C34        -13.6650   -24.8530    14.1750 c2         1 ZJV      -0.192200
     22 C35        -12.0140   -23.2390    12.9040 cx         1 ZJV      -0.094400
     23 C36        -14.7060   -25.1290    14.9840 c2         1 ZJV      -0.189200
     24 C37        -15.9080   -19.8010    15.1040 c          1 ZJV       0.602100
     25 C38        -17.3580   -19.9100    15.6710 c3         1 ZJV       0.066700
     26 C44        -17.6320   -21.3260    16.2460 c3         1 ZJV      -0.089400
     27 C45        -16.7410   -21.7340    17.4490 c3         1 ZJV      -0.079400
     28 C46        -15.6940   -24.1250    17.1180 c3         1 ZJV      -0.074400
     29 C47        -15.7010   -24.1370    15.5720 c3         1 ZJV      -0.048200
     30 C48        -21.6320   -18.7790    13.5120 c3         1 ZJV       0.127300
     31 C49        -21.8480   -18.0330    12.1760 c3         1 ZJV      -0.107100
     32 C50        -22.4740   -20.0920    13.6330 c3         1 ZJV       0.289000
     33 C54        -12.6590   -15.9850    13.1230 c3         1 ZJV      -0.138400
     34 C55        -16.7870   -23.2470    17.7920 c3         1 ZJV      -0.066400
     35 F51        -22.3040   -20.6910    14.8340 f          1 ZJV      -0.110000
     36 F52        -22.1310   -20.9860    12.6760 f          1 ZJV      -0.110000
     37 F53        -23.7950   -19.8300    13.4970 f          1 ZJV      -0.110000
     38 N05        -14.8980   -19.2260    15.9040 n          1 ZJV      -0.385800
     39 N08        -12.4030   -21.3370    14.5640 ns         1 ZJV      -0.472900
     40 N11        -12.0240   -15.2720    16.8360 nb         1 ZJV      -0.756000
     41 N14        -10.9030   -14.7130    14.2570 nb         1 ZJV      -0.614000
     42 N25        -10.0910   -22.6070    15.6580 ns         1 ZJV      -0.564300
     43 N40        -18.3250   -19.6140    14.5960 ns         1 ZJV      -0.481900
     44 O07        -13.1280   -21.5970    16.7170 o          1 ZJV      -0.570100
     45 O09        -13.7560   -16.5090    15.7570 os         1 ZJV      -0.446300
     46 O20         -8.4710   -12.7140    18.8550 os         1 ZJV      -0.334100
     47 O26        -11.2210   -24.5640    15.7260 o          1 ZJV      -0.547100
     48 O28         -9.4860   -23.4500    17.9820 o          1 ZJV      -0.515000
     49 O29         -7.8350   -23.6650    16.0610 o          1 ZJV      -0.515000
     50 O39        -15.6230   -20.2760    14.0090 o          1 ZJV      -0.618100
     51 O42        -20.2170   -19.0820    13.5730 os         1 ZJV      -0.452100
     52 O43        -20.1340   -19.0220    15.8760 o          1 ZJV      -0.539000
     53 S27         -8.8840   -22.9120    16.7570 s6         1 ZJV       1.250800
     54 H211        -8.2940   -12.4340    20.9180 h1         1 ZJV       0.044700
     55 H212        -9.9630   -12.5270    20.3180 h1         1 ZJV       0.044700
     56 H213        -8.9670   -14.0040    20.4330 h1         1 ZJV       0.044700
     57 H241       -14.1220   -22.8920    13.4030 hc         1 ZJV       0.101700
     58 H011       -13.2260   -19.0200    14.5840 h1         1 ZJV       0.077700
     59 H021       -12.6760   -19.1280    17.6390 hc         1 ZJV       0.075700
     60 H022       -11.7690   -18.2290    16.4350 hc         1 ZJV       0.075700
     61 H031       -13.6540   -16.8360    17.8590 h1         1 ZJV       0.091700
     62 H041       -15.9630   -17.4730    16.5690 h1         1 ZJV       0.074700
     63 H042       -15.4030   -18.5580    17.8670 h1         1 ZJV       0.074700
     64 H161       -10.7270   -14.2370    18.8070 ha         1 ZJV       0.133000
     65 H181        -7.6600   -12.3610    16.4130 ha         1 ZJV       0.135000
     66 H191        -8.7320   -13.2450    14.3540 ha         1 ZJV       0.136000
     67 H311        -6.1250   -21.9020    17.4750 hc         1 ZJV       0.088200
     68 H312        -6.4920   -20.2630    18.1970 hc         1 ZJV       0.088200
     69 H321        -6.9810   -21.1100    15.2420 hc         1 ZJV       0.088200
     70 H322        -7.3500   -19.4720    15.9640 hc         1 ZJV       0.088200
     71 H331        -8.9090   -19.3170    18.0220 hc         1 ZJV       0.053700
     72 H332       -10.1950   -20.2280    17.2230 hc         1 ZJV       0.053700
     73 H333        -9.5690   -20.7640    18.7930 hc         1 ZJV       0.053700
     74 H341       -13.0340   -25.6710    13.8190 ha         1 ZJV       0.192000
     75 H351       -11.3670   -24.0880    12.6940 hc         1 ZJV       0.088700
     76 H352       -12.0640   -22.5050    12.1030 hc         1 ZJV       0.088700
     77 H361       -14.9030   -26.1650    15.2660 ha         1 ZJV       0.169000
     78 H381       -17.4910   -19.1690    16.4680 h1         1 ZJV       0.072700
     79 H442       -18.6810   -21.3890    16.5630 hc         1 ZJV       0.058700
     80 H441       -17.5220   -22.0520    15.4340 hc         1 ZJV       0.058700
     81 H452       -15.7000   -21.4450    17.2790 hc         1 ZJV       0.050200
     82 H451       -17.0730   -21.1630    18.3260 hc         1 ZJV       0.050200
     83 H461       -15.8160   -25.1540    17.4760 hc         1 ZJV       0.048700
     84 H462       -14.7070   -23.7950    17.4640 hc         1 ZJV       0.048700
     85 H472       -15.4910   -23.1230    15.2170 hc         1 ZJV       0.045700
     86 H471       -16.7090   -24.3890    15.2230 hc         1 ZJV       0.045700
     87 H481       -21.9250   -18.0990    14.3250 h1         1 ZJV       0.103700
     88 H491       -21.2330   -17.1260    12.1410 hc         1 ZJV       0.063033
     89 H492       -21.5760   -18.6670    11.3230 hc         1 ZJV       0.063033
     90 H493       -22.8970   -17.7330    12.0620 hc         1 ZJV       0.063033
     91 H542       -12.1630   -15.5820    12.2310 hc         1 ZJV       0.061033
     92 H541       -12.5950   -17.0780    13.0750 hc         1 ZJV       0.061033
     93 H543       -13.7170   -15.7070    13.0670 hc         1 ZJV       0.061033
     94 H551       -17.7810   -23.6510    17.5570 hc         1 ZJV       0.037700
     95 H552       -16.6680   -23.3530    18.8770 hc         1 ZJV       0.037700
     96 H081       -12.3540   -20.6810    13.7920 hn         1 ZJV       0.323500
     97 H251       -10.0440   -21.6800    15.2760 hn         1 ZJV       0.337500
     98 H401       -18.0390   -19.7370    13.6320 hn         1 ZJV       0.344500
     99 C23        -11.1200   -23.4170    15.3140 c          1 ZJV       0.676100
    100 C41        -19.6170   -19.2230    14.7890 c          1 ZJV       0.647100
@<TRIPOS>BOND
     1     1     3 ar  
     2     1    40 ar  
     3     1    45 1   
     4     2    13 ar  
     5     2    16 ar  
     6     2    41 ar  
     7     3    33 1   
     8     3    41 ar  
     9     4    14 ar  
    10     4    15 ar  
    11     4    46 1   
    12     5    46 1   
    13     5    54 1   
    14     5    55 1   
    15     5    56 1   
    16     6     7 1   
    17     6    22 1   
    18     6    39 1   
    19     6    99 1   
    20     7    21 1   
    21     7    22 1   
    22     7    57 1   
    23     8     9 1   
    24     8    12 1   
    25     8    38 1   
    26     8    58 1   
    27     9    10 1   
    28     9    59 1   
    29     9    60 1   
    30    10    11 1   
    31    10    45 1   
    32    10    61 1   
    33    11    38 1   
    34    11    62 1   
    35    11    63 1   
    36    12    39 1   
    37    12    44 2   
    38    13    14 ar  
    39    13    40 ar  
    40    14    64 1   
    41    15    16 ar  
    42    15    65 1   
    43    16    66 1   
    44    17    18 1   
    45    17    19 1   
    46    17    20 1   
    47    17    53 1   
    48    18    19 1   
    49    18    67 1   
    50    18    68 1   
    51    19    69 1   
    52    19    70 1   
    53    20    71 1   
    54    20    72 1   
    55    20    73 1   
    56    21    23 2   
    57    21    74 1   
    58    22    75 1   
    59    22    76 1   
    60    23    29 1   
    61    23    77 1   
    62    24    25 1   
    63    24    38 1   
    64    24    50 2   
    65    25    26 1   
    66    25    43 1   
    67    25    78 1   
    68    26    27 1   
    69    26    79 1   
    70    26    80 1   
    71    27    34 1   
    72    27    81 1   
    73    27    82 1   
    74    28    29 1   
    75    28    34 1   
    76    28    83 1   
    77    28    84 1   
    78    29    85 1   
    79    29    86 1   
    80    30    31 1   
    81    30    32 1   
    82    30    51 1   
    83    30    87 1   
    84    31    88 1   
    85    31    89 1   
    86    31    90 1   
    87    32    35 1   
    88    32    36 1   
    89    32    37 1   
    90    33    91 1   
    91    33    92 1   
    92    33    93 1   
    93    34    94 1   
    94    34    95 1   
    95    39    96 1   
    96    42    53 1   
    97    42    97 1   
    98    42    99 1   
    99    43    98 1   
   100    43   100 1   
   101    47    99 2   
   102    48    53 2   
   103    49    53 2   
   104    51   100 1   
   105    52   100 2   
@<TRIPOS>SUBSTRUCTURE
     1 ZJV         1 TEMP              0 ****  ****    0 ROOT
