@<TRIPOS>MOLECULE
ZJW
   50    52     1     0     0
SMALL
No Charge or Current Charge


@<TRIPOS>ATOM
      1 N1         -13.9780    22.7170    26.9240 nc         1 ZJW      -0.368000
      2 N3         -15.2890    21.1300    26.1120 na         1 ZJW      -0.383000
      3 C4         -14.9450    21.9940    25.0990 cd         1 ZJW       0.368400
      4 C5         -16.1460    19.9340    25.9970 c3         1 ZJW       0.045600
      5 C6         -15.4390    18.7510    25.3040 c3         1 ZJW       0.094000
      6 C7         -16.6390    16.7460    26.2450 c          1 ZJW       0.651100
      7 C8         -18.0980    14.8850    27.0600 c6         1 ZJW       0.088000
      8 C10        -18.8870    14.2160    24.3200 c6         1 ZJW       0.087000
      9 C13        -21.5610    12.3850    26.3360 cc         1 ZJW      -0.279600
     10 C15        -23.3800    11.3800    27.4070 cd         1 ZJW      -0.149000
     11 C1         -13.8090    19.8280    28.8240 c3         1 ZJW      -0.095100
     12 C11        -18.2140    15.5780    24.6290 c6         1 ZJW       0.088000
     13 C12        -20.6000    12.6510    25.2360 c          1 ZJW       0.647700
     14 C14        -22.4990    11.3800    26.2920 cd         1 ZJW      -0.063000
     15 C16        -23.1430    12.3970    28.2970 cc         1 ZJW      -0.175300
     16 C3         -14.6630    21.6270    27.2320 cd         1 ZJW       0.400800
     17 C9         -18.7190    13.5310    26.6500 c6         1 ZJW       0.087000
     18 N2         -14.1560    22.9490    25.5740 nc         1 ZJW      -0.356000
     19 N4         -16.3000    17.5670    25.1960 ns         1 ZJW      -0.519900
     20 N5         -17.5020    15.6750    25.9430 n          1 ZJW      -0.422800
     21 N6         -19.6180    13.6370    25.4720 n          1 ZJW      -0.417800
     22 O1         -16.2080    16.9370    27.3720 o          1 ZJW      -0.645100
     23 O2         -20.6720    12.0760    24.1570 o          1 ZJW      -0.590100
     24 S1         -21.8020    13.4040    27.7560 ss         1 ZJW       0.193000
     25 H6         -15.2870    21.8720    24.0780 h5         1 ZJW       0.057100
     26 H7         -16.4760    19.6240    26.9960 h1         1 ZJW       0.068700
     27 H8         -17.0430    20.2000    25.4230 h1         1 ZJW       0.068700
     28 H10        -15.1300    19.0530    24.2950 h1         1 ZJW       0.071200
     29 H9         -14.5340    18.4830    25.8650 h1         1 ZJW       0.071200
     30 H13        -17.3320    14.6930    27.8250 h1         1 ZJW       0.056700
     31 H12        -18.8790    15.4970    27.5330 h1         1 ZJW       0.056700
     32 H17        -18.1120    13.5020    24.0040 h1         1 ZJW       0.066200
     33 H16        -19.5720    14.3460    23.4690 h1         1 ZJW       0.066200
     34 H21        -24.1730    10.6490    27.5340 ha         1 ZJW       0.139000
     35 H23        -23.1870    12.7750    30.4180 hc         1 ZJW       0.051367
     36 H24        -24.4220    13.6510    29.4930 hc         1 ZJW       0.051367
     37 H22        -24.6100    11.9150    29.8050 hc         1 ZJW       0.051367
     38 H2         -13.8640    19.4710    29.8600 hc         1 ZJW       0.046700
     39 H3         -14.1080    19.0060    28.1640 hc         1 ZJW       0.046700
     40 H1         -12.7660    20.0850    28.6050 hc         1 ZJW       0.046700
     41 H19        -17.5180    15.7940    23.8070 h1         1 ZJW       0.056700
     42 H18        -18.9910    16.3560    24.6100 h1         1 ZJW       0.056700
     43 H20        -22.5650    10.6550    25.4850 ha         1 ZJW       0.149000
     44 H5         -15.7570    20.7770    28.8710 hc         1 ZJW       0.063200
     45 H4         -14.4400    21.8240    29.3530 hc         1 ZJW       0.063200
     46 H15        -17.8980    12.8490    26.3860 h1         1 ZJW       0.066200
     47 H14        -19.2160    13.0750    27.5140 h1         1 ZJW       0.066200
     48 H11        -16.6900    17.3350    24.2930 hn         1 ZJW       0.311500
     49 C2         -14.7250    21.0540    28.6270 c3         1 ZJW      -0.108700
     50 C17        -23.8810    12.7000    29.5720 c3         1 ZJW      -0.025800
@<TRIPOS>BOND
     1     1    16 2   
     2     1    18 1   
     3     2     3 1   
     4     2     4 1   
     5     2    16 1   
     6     3    18 2   
     7     3    25 1   
     8     4     5 1   
     9     4    26 1   
    10     4    27 1   
    11     5    19 1   
    12     5    28 1   
    13     5    29 1   
    14     6    19 1   
    15     6    20 1   
    16     6    22 2   
    17     7    17 1   
    18     7    20 1   
    19     7    30 1   
    20     7    31 1   
    21     8    12 1   
    22     8    21 1   
    23     8    32 1   
    24     8    33 1   
    25     9    13 1   
    26     9    14 2   
    27     9    24 1   
    28    10    14 1   
    29    10    15 2   
    30    10    34 1   
    31    11    38 1   
    32    11    39 1   
    33    11    40 1   
    34    11    49 1   
    35    12    20 1   
    36    12    41 1   
    37    12    42 1   
    38    13    21 1   
    39    13    23 2   
    40    14    43 1   
    41    15    24 1   
    42    15    50 1   
    43    16    49 1   
    44    17    21 1   
    45    17    46 1   
    46    17    47 1   
    47    19    48 1   
    48    35    50 1   
    49    36    50 1   
    50    37    50 1   
    51    44    49 1   
    52    45    49 1   
@<TRIPOS>SUBSTRUCTURE
     1 ZJW         1 TEMP              0 ****  ****    0 ROOT
