@<TRIPOS>MOLECULE
ZJW
   50    52     1     0     0
SMALL
abcg2


@<TRIPOS>ATOM
      1 N1         -13.6800    22.3780    27.0150 nc         1 ZJW      -0.368000
      2 N3         -15.1380    21.0170    26.1090 na         1 ZJW      -0.383000
      3 C4         -14.5930    21.8040    25.1400 cd         1 ZJW       0.368400
      4 C5         -16.1280    19.9660    25.9070 c3         1 ZJW       0.045600
      5 C6         -15.4980    18.7180    25.2780 c3         1 ZJW       0.094000
      6 C7         -16.8440    16.8590    26.1280 c          1 ZJW       0.651100
      7 C8         -18.4580    15.2570    26.9920 c6         1 ZJW       0.088000
      8 C10        -18.7790    14.2600    24.3110 c6         1 ZJW       0.087000
      9 C13        -21.4150    12.4690    26.3600 cc         1 ZJW      -0.279600
     10 C15        -22.8860    11.1870    27.6300 cd         1 ZJW      -0.149000
     11 C1         -14.1390    19.4560    28.8330 c3         1 ZJW      -0.095100
     12 C11        -18.4560    15.7270    24.5830 c6         1 ZJW       0.088000
     13 C12        -20.5670    12.8700    25.2110 c          1 ZJW       0.647700
     14 C14        -22.0250    11.2510    26.5050 cd         1 ZJW      -0.063000
     15 C16        -22.9570    12.3620    28.3300 cc         1 ZJW      -0.175300
     16 C3         -14.5330    21.4110    27.2730 cd         1 ZJW       0.400800
     17 C9         -18.7620    13.8000    26.6890 c6         1 ZJW       0.087000
     18 N2         -13.7170    22.6270    25.6540 nc         1 ZJW      -0.356000
     19 N4         -16.4660    17.6590    25.0870 ns         1 ZJW      -0.519900
     20 N5         -17.7760    15.8850    25.8640 n          1 ZJW      -0.422800
     21 N6         -19.5050    13.6870    25.4360 n          1 ZJW      -0.417800
     22 O1         -16.3340    16.9880    27.2470 o          1 ZJW      -0.645100
     23 O2         -20.8710    12.4890    24.0760 o          1 ZJW      -0.590100
     24 S1         -21.9340    13.5570    27.6100 ss         1 ZJW       0.193000
     25 H6         -14.8730    21.7380    24.1010 h5         1 ZJW       0.057100
     26 H7         -16.5670    19.7180    26.8690 h1         1 ZJW       0.068700
     27 H8         -16.9150    20.3540    25.2610 h1         1 ZJW       0.068700
     28 H10        -15.0780    18.9700    24.3040 h1         1 ZJW       0.071200
     29 H9         -14.6910    18.3560    25.9110 h1         1 ZJW       0.071200
     30 H13        -17.8170    15.3270    27.8650 h1         1 ZJW       0.056700
     31 H12        -19.3950    15.7880    27.2030 h1         1 ZJW       0.056700
     32 H17        -17.8500    13.7020    24.1510 h1         1 ZJW       0.066200
     33 H16        -19.3890    14.1790    23.4180 h1         1 ZJW       0.066200
     34 H21        -23.4460    10.3060    27.9130 ha         1 ZJW       0.139000
     35 H23        -23.1390    12.9240    30.3970 hc         1 ZJW       0.051367
     36 H24        -24.4450    13.5110    29.3710 hc         1 ZJW       0.051367
     37 H22        -24.3720    11.7990    29.8100 hc         1 ZJW       0.051367
     38 H2         -14.3000    19.1270    29.8610 hc         1 ZJW       0.046700
     39 H3         -14.5640    18.7030    28.1700 hc         1 ZJW       0.046700
     40 H1         -13.0640    19.5100    28.6540 hc         1 ZJW       0.046700
     41 H19        -17.8170    16.0670    23.7720 h1         1 ZJW       0.056700
     42 H18        -19.3830    16.3130    24.5680 h1         1 ZJW       0.056700
     43 H20        -21.8580    10.4330    25.8190 ha         1 ZJW       0.149000
     44 H5         -15.8710    20.7540    28.7810 hc         1 ZJW       0.063200
     45 H4         -14.4080    21.5410    29.3480 hc         1 ZJW       0.063200
     46 H15        -17.8220    13.2470    26.5790 h1         1 ZJW       0.066200
     47 H14        -19.3200    13.3570    27.5060 h1         1 ZJW       0.066200
     48 H11        -17.0330    17.7090    24.2590 hn         1 ZJW       0.311500
     49 C2         -14.7930    20.8280    28.6190 c3         1 ZJW      -0.108700
     50 C17        -23.7720    12.6690    29.5440 c3         1 ZJW      -0.025800
@<TRIPOS>BOND
     1     1    16 2   
     2     1    18 1   
     3     2     3 1   
     4     2     4 1   
     5     2    16 1   
     6     3    18 2   
     7     3    25 1   
     8     4     5 1   
     9     4    26 1   
    10     4    27 1   
    11     5    19 1   
    12     5    28 1   
    13     5    29 1   
    14     6    19 1   
    15     6    20 1   
    16     6    22 2   
    17     7    17 1   
    18     7    20 1   
    19     7    30 1   
    20     7    31 1   
    21     8    12 1   
    22     8    21 1   
    23     8    32 1   
    24     8    33 1   
    25     9    13 1   
    26     9    14 2   
    27     9    24 1   
    28    10    14 1   
    29    10    15 2   
    30    10    34 1   
    31    11    38 1   
    32    11    39 1   
    33    11    40 1   
    34    11    49 1   
    35    12    20 1   
    36    12    41 1   
    37    12    42 1   
    38    13    21 1   
    39    13    23 2   
    40    14    43 1   
    41    15    24 1   
    42    15    50 1   
    43    16    49 1   
    44    17    21 1   
    45    17    46 1   
    46    17    47 1   
    47    19    48 1   
    48    35    50 1   
    49    36    50 1   
    50    37    50 1   
    51    44    49 1   
    52    45    49 1   
@<TRIPOS>SUBSTRUCTURE
     1 ZJW         1 TEMP              0 ****  ****    0 ROOT
