@<TRIPOS>MOLECULE
ZJX
   43    46     1     0     0
SMALL
abcg2


@<TRIPOS>ATOM
      1 C10         -3.3830   -23.4220    25.4330 ca         1 ZJX       0.214900
      2 C13         -1.4850   -25.0340    22.7470 cc         1 ZJX       0.331900
      3 C20          2.0420   -24.0040    23.5650 ca         1 ZJX      -0.127000
      4 C21          2.6640   -24.0470    22.3240 ca         1 ZJX      -0.068000
      5 C22          1.9210   -24.4100    21.2090 ca         1 ZJX       0.062000
      6 C24          0.5760   -24.7320    21.3380 ca         1 ZJX       0.206000
      7 C01         -8.9950   -22.2020    26.7080 c3         1 ZJX      -0.082100
      8 C02         -7.9760   -22.0280    25.5780 c6         1 ZJX       0.171200
      9 C04         -6.6010   -21.6030    26.1420 c6         1 ZJX      -0.117900
     10 C05         -5.8660   -22.7410    26.8540 c6         1 ZJX       0.215300
     11 C07         -7.0370   -24.4050    25.5480 c6         1 ZJX       0.215300
     12 C08         -7.8110   -23.3330    24.7800 c6         1 ZJX      -0.117900
     13 C09         -4.6360   -24.1000    25.1760 ca         1 ZJX       0.608900
     14 C12         -2.3860   -24.5340    23.7400 ca         1 ZJX       0.106700
     15 C16         -3.6120   -25.1720    23.4860 ca         1 ZJX       0.395500
     16 C18         -0.0670   -24.7040    22.5780 ca         1 ZJX      -0.127900
     17 C19          0.6990   -24.3270    23.6890 ca         1 ZJX      -0.054000
     18 N03         -8.5200   -21.0110    24.6580 n8         1 ZJX      -0.992200
     19 N06         -5.7300   -23.8890    25.9580 nh         1 ZJX      -0.763300
     20 N11         -2.2910   -23.6320    24.7360 nb         1 ZJX      -0.547000
     21 N14         -2.1210   -25.9020    21.9680 nd         1 ZJX      -0.488100
     22 N15         -3.4030   -25.9780    22.4190 na         1 ZJX      -0.169100
     23 N17         -4.7370   -24.9770    24.1680 nb         1 ZJX      -0.751000
     24 CL23         2.6630   -24.4590    19.6360 cl         1 ZJX      -0.179000
     25 H101        -3.3110   -22.6980    26.2310 h4         1 ZJX       0.029100
     26 H201         2.6120   -23.7220    24.4400 ha         1 ZJX       0.125000
     27 H211         3.7110   -23.8020    22.2120 ha         1 ZJX       0.132000
     28 H012        -8.6750   -22.9440    27.4390 hc         1 ZJX       0.040033
     29 H011        -9.1370   -21.2550    27.2340 hc         1 ZJX       0.040033
     30 H013        -9.9560   -22.5180    26.2990 hc         1 ZJX       0.040033
     31 H041        -5.9770   -21.2560    25.3130 hc         1 ZJX       0.055700
     32 H042        -6.7320   -20.7620    26.8280 hc         1 ZJX       0.055700
     33 H051        -6.4300   -23.0770    27.7260 h1         1 ZJX       0.064700
     34 H052        -4.8990   -22.4120    27.2180 h1         1 ZJX       0.064700
     35 H071        -7.5720   -24.6950    26.4540 h1         1 ZJX       0.064700
     36 H072        -6.8980   -25.2910    24.9390 h1         1 ZJX       0.064700
     37 H082        -8.7960   -23.7150    24.5000 hc         1 ZJX       0.055700
     38 H081        -7.2700   -23.1130    23.8540 hc         1 ZJX       0.055700
     39 H191         0.2220   -24.2950    24.6580 ha         1 ZJX       0.139000
     40 H032        -8.6410   -20.1350    25.1590 hn         1 ZJX       0.395000
     41 H031        -7.8400   -20.8230    23.9250 hn         1 ZJX       0.395000
     42 H151        -4.0580   -26.5950    21.9650 hn         1 ZJX       0.390000
     43 F25         -0.1100   -25.0540    20.2280 f          1 ZJX      -0.150000
@<TRIPOS>BOND
     1     1    13 ar  
     2     1    20 ar  
     3     1    25 1   
     4     2    14 1   
     5     2    16 1   
     6     2    21 2   
     7     3     4 ar  
     8     3    17 ar  
     9     3    26 1   
    10     4     5 ar  
    11     4    27 1   
    12     5     6 ar  
    13     5    24 1   
    14     6    16 ar  
    15     6    43 1   
    16     7     8 1   
    17     7    28 1   
    18     7    29 1   
    19     7    30 1   
    20     8     9 1   
    21     8    12 1   
    22     8    18 1   
    23     9    10 1   
    24     9    31 1   
    25     9    32 1   
    26    10    19 1   
    27    10    33 1   
    28    10    34 1   
    29    11    12 1   
    30    11    19 1   
    31    11    35 1   
    32    11    36 1   
    33    12    37 1   
    34    12    38 1   
    35    13    19 1   
    36    13    23 ar  
    37    14    15 ar  
    38    14    20 ar  
    39    15    22 1   
    40    15    23 ar  
    41    16    17 ar  
    42    17    39 1   
    43    18    40 1   
    44    18    41 1   
    45    21    22 1   
    46    22    42 1   
@<TRIPOS>SUBSTRUCTURE
     1 ZJX         1 TEMP              0 ****  ****    0 ROOT
