@<TRIPOS>MOLECULE
ZJX
   43    46     1     0     0
SMALL
No Charge or Current Charge


@<TRIPOS>ATOM
      1 C10         -3.3350   -22.8190    24.5400 ca         1 ZJX       0.214900
      2 C13         -1.2500   -25.3600    22.8610 cc         1 ZJX       0.331900
      3 C20          2.2020   -24.0180    23.6640 ca         1 ZJX      -0.127000
      4 C21          2.9110   -24.3240    22.4910 ca         1 ZJX      -0.068000
      5 C22          2.2560   -24.9660    21.4290 ca         1 ZJX       0.062000
      6 C24          0.8900   -25.2990    21.5370 ca         1 ZJX       0.206000
      7 C01         -8.8110   -22.9930    27.1860 c3         1 ZJX      -0.082100
      8 C02         -8.3460   -22.0090    26.0690 c6         1 ZJX       0.171200
      9 C04         -6.9700   -21.3720    26.3920 c6         1 ZJX      -0.117900
     10 C05         -5.8180   -22.4040    26.3270 c6         1 ZJX       0.215300
     11 C07         -7.0920   -23.7310    24.6230 c6         1 ZJX       0.215300
     12 C08         -8.2520   -22.7060    24.6880 c6         1 ZJX      -0.117900
     13 C09         -4.5590   -23.5790    24.4910 ca         1 ZJX       0.608900
     14 C12         -2.2600   -24.5320    23.5030 ca         1 ZJX       0.106700
     15 C16         -3.4320   -25.2650    23.4410 ca         1 ZJX       0.395500
     16 C18          0.1610   -24.9780    22.7070 ca         1 ZJX      -0.127900
     17 C19          0.8400   -24.3480    23.7740 ca         1 ZJX      -0.054000
     18 N03         -9.3520   -20.9390    25.9880 n8         1 ZJX      -0.992200
     19 N06         -5.7910   -23.1010    25.0090 nh         1 ZJX      -0.763300
     20 N11         -2.1530   -23.2860    24.0390 nb         1 ZJX      -0.547000
     21 N14         -1.7540   -26.5260    22.4260 nd         1 ZJX      -0.488100
     22 N15         -3.1030   -26.4410    22.8010 na         1 ZJX      -0.169100
     23 N17         -4.6110   -24.8180    23.9290 nb         1 ZJX      -0.751000
     24 Cl23         3.1630   -25.3440    19.9630 cl         1 ZJX      -0.179000
     25 H101        -3.3090   -21.8210    24.9730 h4         1 ZJX       0.029100
     26 H201         2.7110   -23.5300    24.4930 ha         1 ZJX       0.125000
     27 H211         3.9640   -24.0690    22.4070 ha         1 ZJX       0.132000
     28 H012        -8.1210   -23.8340    27.3150 hc         1 ZJX       0.040033
     29 H011        -8.8870   -22.4860    28.1560 hc         1 ZJX       0.040033
     30 H013        -9.7970   -23.4160    26.9590 hc         1 ZJX       0.040033
     31 H041        -6.7530   -20.5640    25.6800 hc         1 ZJX       0.055700
     32 H042        -6.9870   -20.9090    27.3890 hc         1 ZJX       0.055700
     33 H051        -5.9320   -23.1390    27.1380 h1         1 ZJX       0.064700
     34 H052        -4.8750   -21.8730    26.5180 h1         1 ZJX       0.064700
     35 H071        -7.3090   -24.5880    25.2770 h1         1 ZJX       0.064700
     36 H072        -7.0500   -24.1150    23.5930 h1         1 ZJX       0.064700
     37 H082        -9.1960   -23.2130    24.4490 hc         1 ZJX       0.055700
     38 H081        -8.0950   -21.9570    23.9000 hc         1 ZJX       0.055700
     39 H191         0.3180   -24.1200    24.7010 ha         1 ZJX       0.139000
     40 H032        -8.8800   -20.0380    26.1140 hn         1 ZJX       0.395000
     41 H031        -9.7020   -20.8930    25.0260 hn         1 ZJX       0.395000
     42 H151        -3.7610   -27.1890    22.6040 hn         1 ZJX       0.390000
     43 F25          0.2770   -25.8960    20.4870 f          1 ZJX      -0.150000
@<TRIPOS>BOND
     1     1    13 ar  
     2     1    20 ar  
     3     1    25 1   
     4     2    14 1   
     5     2    16 1   
     6     2    21 2   
     7     3     4 ar  
     8     3    17 ar  
     9     3    26 1   
    10     4     5 ar  
    11     4    27 1   
    12     5     6 ar  
    13     5    24 1   
    14     6    16 ar  
    15     6    43 1   
    16     7     8 1   
    17     7    28 1   
    18     7    29 1   
    19     7    30 1   
    20     8     9 1   
    21     8    12 1   
    22     8    18 1   
    23     9    10 1   
    24     9    31 1   
    25     9    32 1   
    26    10    19 1   
    27    10    33 1   
    28    10    34 1   
    29    11    12 1   
    30    11    19 1   
    31    11    35 1   
    32    11    36 1   
    33    12    37 1   
    34    12    38 1   
    35    13    19 1   
    36    13    23 ar  
    37    14    15 ar  
    38    14    20 ar  
    39    15    22 1   
    40    15    23 ar  
    41    16    17 ar  
    42    17    39 1   
    43    18    40 1   
    44    18    41 1   
    45    21    22 1   
    46    22    42 1   
@<TRIPOS>SUBSTRUCTURE
     1 ZJX         1 TEMP              0 ****  ****    0 ROOT
