@<TRIPOS>MOLECULE
ZJY
  104   110     1     0     0
SMALL
bcc


@<TRIPOS>ATOM
      1 C10        -16.1180   -20.3490    15.8100 c          1 ZJY       0.674100
      2 C17        -19.5530   -17.4750    13.3780 c3         1 ZJY       0.194400
      3 C21        -13.6080   -15.8190    16.2630 ca         1 ZJY       0.555300
      4 C24        -12.2980   -13.5480    15.8130 ca         1 ZJY       0.231300
      5 C26        -14.0720   -14.8860    15.2690 ca         1 ZJY       0.323300
      6 C28        -10.0040   -13.0470    17.3350 ca         1 ZJY       0.163100
      7 C01        -13.7960   -19.6920    15.7640 c5         1 ZJY       0.033700
      8 C02        -12.9430   -18.8470    16.7160 c5         1 ZJY      -0.109400
      9 C03        -13.9580   -17.9080    17.3510 c5         1 ZJY       0.141100
     10 C04        -15.1630   -18.8050    17.5520 c5         1 ZJY       0.107000
     11 C06        -13.2940   -21.1240    15.6600 c          1 ZJY       0.657100
     12 C09        -12.4730   -22.8660    14.2370 cx         1 ZJY      -0.063600
     13 C11        -17.4710   -20.4240    16.5240 c3         1 ZJY       0.068700
     14 C18        -17.7160   -21.8680    16.9660 c3         1 ZJY      -0.089400
     15 C19        -16.7420   -22.3380    18.0430 c3         1 ZJY      -0.079400
     16 C23        -11.8550   -14.4780    16.7730 ca         1 ZJY       0.371300
     17 C27        -10.7000   -14.2200    17.5330 ca         1 ZJY      -0.286300
     18 C29        -10.4470   -12.1110    16.3690 ca         1 ZJY      -0.159000
     19 C30        -11.5660   -12.3590    15.6270 ca         1 ZJY      -0.112300
     20 C32         -8.4030   -13.5780    18.9950 c3         1 ZJY       0.122700
     21 C33        -15.2940   -15.1770    14.4650 c3         1 ZJY      -0.140400
     22 C34        -11.2430   -23.4110    14.8840 c          1 ZJY       0.746100
     23 C40         -8.4640   -21.2330    16.6650 cx         1 ZJY      -0.295200
     24 C41         -6.9960   -20.9390    16.5610 cx         1 ZJY      -0.076900
     25 C42         -7.9430   -20.3220    15.5900 cx         1 ZJY      -0.076900
     26 C43         -9.2710   -20.6940    17.8190 c3         1 ZJY      -0.039100
     27 C44        -13.7020   -23.7600    14.0560 cx         1 ZJY      -0.037500
     28 C45        -13.8430   -25.1270    14.5940 c2         1 ZJY      -0.136200
     29 C46        -14.8040   -25.5140    15.4360 c2         1 ZJY      -0.142200
     30 C47        -15.8640   -24.6670    16.0680 c3         1 ZJY      -0.047200
     31 C48        -15.7530   -24.6730    17.5950 c3         1 ZJY      -0.074400
     32 C49        -12.8380   -23.4280    12.8910 cx         1 ZJY      -0.098400
     33 C50        -16.8110   -23.8450    18.3250 c3         1 ZJY      -0.066400
     34 C51        -19.2600   -17.7880    11.9310 cx         1 ZJY      -0.244000
     35 C52        -20.0160   -16.9790    10.9150 cx         1 ZJY      -0.092900
     36 C53        -20.3560   -18.4170    11.1220 cx         1 ZJY      -0.092900
     37 C54        -17.8490   -18.1740    11.6130 c3         1 ZJY       0.700900
     38 F55        -17.6420   -18.3520    10.3020 f          1 ZJY      -0.231967
     39 F56        -17.4940   -19.3240    12.2090 f          1 ZJY      -0.231967
     40 F57        -16.9690   -17.2470    12.0190 f          1 ZJY      -0.231967
     41 N05        -15.1100   -19.6830    16.3920 n          1 ZJY      -0.453800
     42 N08        -12.7470   -21.4880    14.4770 ns         1 ZJY      -0.542900
     43 N13        -18.5150   -20.0210    15.6110 ns         1 ZJY      -0.554900
     44 N22        -12.5460   -15.6290    16.9740 nb         1 ZJY      -0.758000
     45 N25        -13.4090   -13.7870    15.0730 nb         1 ZJY      -0.617000
     46 N35        -10.4070   -22.4530    15.3930 ns         1 ZJY      -0.637300
     47 O07        -13.3470   -21.8850    16.6070 o          1 ZJY      -0.568100
     48 O12        -15.9540   -20.9440    14.7540 o          1 ZJY      -0.610100
     49 O15        -19.5100   -18.6470    14.1870 os         1 ZJY      -0.429900
     50 O16        -17.6070   -17.9930    15.2210 o          1 ZJY      -0.593000
     51 O20        -14.3610   -16.9030    16.4190 os         1 ZJY      -0.419100
     52 O31         -8.8970   -12.6970    18.0050 os         1 ZJY      -0.311900
     53 O36        -10.9760   -24.5910    14.9410 o          1 ZJY      -0.546100
     54 O38         -8.0210   -23.3600    15.1420 o          1 ZJY      -0.584800
     55 O39         -9.2400   -23.6770    17.2970 o          1 ZJY      -0.584800
     56 S37         -8.9470   -22.8510    16.1400 s6         1 ZJY       1.284600
     57 H172       -18.8860   -16.7050    13.7670 h1         1 ZJY       0.075700
     58 H171       -20.5710   -17.0920    13.4470 h1         1 ZJY       0.075700
     59 H011       -13.8450   -19.2270    14.7740 h1         1 ZJY       0.078700
     60 H022       -12.5130   -19.4690    17.5040 hc         1 ZJY       0.075200
     61 H021       -12.1270   -18.3360    16.2090 hc         1 ZJY       0.075200
     62 H031       -13.6110   -17.4560    18.2800 h1         1 ZJY       0.089700
     63 H041       -16.0910   -18.2380    17.5920 h1         1 ZJY       0.072200
     64 H042       -15.0580   -19.3650    18.4850 h1         1 ZJY       0.072200
     65 H111       -17.4920   -19.7840    17.4100 h1         1 ZJY       0.065700
     66 H181       -18.7360   -21.9380    17.3540 hc         1 ZJY       0.056700
     67 H182       -17.6740   -22.5140    16.0850 hc         1 ZJY       0.056700
     68 H192       -15.7140   -22.0780    17.7740 hc         1 ZJY       0.049700
     69 H191       -16.9570   -21.7800    18.9580 hc         1 ZJY       0.049700
     70 H271       -10.3980   -14.9620    18.2600 ha         1 ZJY       0.151000
     71 H291        -9.8850   -11.1960    16.2300 ha         1 ZJY       0.152000
     72 H301       -11.9080   -11.6450    14.8880 ha         1 ZJY       0.153000
     73 H321        -7.5130   -13.1100    19.4090 h1         1 ZJY       0.044367
     74 H322        -9.1280   -13.7320    19.7980 h1         1 ZJY       0.044367
     75 H323        -8.1300   -14.5490    18.5750 h1         1 ZJY       0.044367
     76 H333       -15.4730   -14.3670    13.7610 hc         1 ZJY       0.063033
     77 H332       -15.1890   -16.1070    13.9050 hc         1 ZJY       0.063033
     78 H331       -16.1750   -15.2860    15.1000 hc         1 ZJY       0.063033
     79 H412        -6.3250   -21.7060    16.1980 hc         1 ZJY       0.088950
     80 H411        -6.5910   -20.3290    17.3580 hc         1 ZJY       0.088950
     81 H421        -7.9180   -20.6740    14.5660 hc         1 ZJY       0.088950
     82 H422        -8.2030   -19.2770    15.6990 hc         1 ZJY       0.088950
     83 H432        -8.9390   -19.6800    18.0360 hc         1 ZJY       0.051367
     84 H431       -10.3360   -20.6470    17.5910 hc         1 ZJY       0.051367
     85 H433        -9.1330   -21.2940    18.7160 hc         1 ZJY       0.051367
     86 H441       -14.6010   -23.1570    14.1160 hc         1 ZJY       0.103700
     87 H451       -13.1390   -25.8700    14.2430 ha         1 ZJY       0.138000
     88 H461       -14.8190   -26.5620    15.7210 ha         1 ZJY       0.117000
     89 H471       -15.8180   -23.6430    15.6970 hc         1 ZJY       0.046200
     90 H472       -16.8500   -25.0550    15.7870 hc         1 ZJY       0.046200
     91 H482       -15.8070   -25.7070    17.9480 hc         1 ZJY       0.048700
     92 H481       -14.7610   -24.3070    17.8760 hc         1 ZJY       0.048700
     93 H491       -12.1890   -24.2020    12.5000 hc         1 ZJY       0.086700
     94 H492       -13.2060   -22.7280    12.1510 hc         1 ZJY       0.086700
     95 H501       -17.8100   -24.2270    18.0870 hc         1 ZJY       0.036200
     96 H502       -16.6780   -24.0120    19.3960 hc         1 ZJY       0.036200
     97 H522       -19.5170   -16.6920     9.9990 hc         1 ZJY       0.088200
     98 H521       -20.6890   -16.2260    11.3030 hc         1 ZJY       0.088200
     99 H532       -21.2680   -18.6630    11.6510 hc         1 ZJY       0.088200
    100 H531       -20.0960   -19.1230    10.3440 hc         1 ZJY       0.088200
    101 H081       -12.7910   -20.8570    13.6910 hn         1 ZJY       0.325500
    102 H131       -19.2240   -20.6890    15.3510 hn         1 ZJY       0.339500
    103 H351       -10.5770   -21.4750    15.1880 hn         1 ZJY       0.340500
    104 C14        -18.4740   -18.8190    15.0150 c          1 ZJY       0.759100
@<TRIPOS>BOND
     1     1    13 1   
     2     1    41 1   
     3     1    48 2   
     4     2    34 1   
     5     2    49 1   
     6     2    57 1   
     7     2    58 1   
     8     3     5 ar  
     9     3    44 ar  
    10     3    51 1   
    11     4    16 ar  
    12     4    19 ar  
    13     4    45 ar  
    14     5    21 1   
    15     5    45 ar  
    16     6    17 ar  
    17     6    18 ar  
    18     6    52 1   
    19     7     8 1   
    20     7    11 1   
    21     7    41 1   
    22     7    59 1   
    23     8     9 1   
    24     8    60 1   
    25     8    61 1   
    26     9    10 1   
    27     9    51 1   
    28     9    62 1   
    29    10    41 1   
    30    10    63 1   
    31    10    64 1   
    32    11    42 1   
    33    11    47 2   
    34    12    22 1   
    35    12    27 1   
    36    12    32 1   
    37    12    42 1   
    38    13    14 1   
    39    13    43 1   
    40    13    65 1   
    41    14    15 1   
    42    14    66 1   
    43    14    67 1   
    44    15    33 1   
    45    15    68 1   
    46    15    69 1   
    47    16    17 ar  
    48    16    44 ar  
    49    17    70 1   
    50    18    19 ar  
    51    18    71 1   
    52    19    72 1   
    53    20    52 1   
    54    20    73 1   
    55    20    74 1   
    56    20    75 1   
    57    21    76 1   
    58    21    77 1   
    59    21    78 1   
    60    22    46 1   
    61    22    53 2   
    62    23    24 1   
    63    23    25 1   
    64    23    26 1   
    65    23    56 1   
    66    24    25 1   
    67    24    79 1   
    68    24    80 1   
    69    25    81 1   
    70    25    82 1   
    71    26    83 1   
    72    26    84 1   
    73    26    85 1   
    74    27    28 1   
    75    27    32 1   
    76    27    86 1   
    77    28    29 2   
    78    28    87 1   
    79    29    30 1   
    80    29    88 1   
    81    30    31 1   
    82    30    89 1   
    83    30    90 1   
    84    31    33 1   
    85    31    91 1   
    86    31    92 1   
    87    32    93 1   
    88    32    94 1   
    89    33    95 1   
    90    33    96 1   
    91    34    35 1   
    92    34    36 1   
    93    34    37 1   
    94    35    36 1   
    95    35    97 1   
    96    35    98 1   
    97    36    99 1   
    98    36   100 1   
    99    37    38 1   
   100    37    39 1   
   101    37    40 1   
   102    42   101 1   
   103    43   102 1   
   104    43   104 1   
   105    46    56 1   
   106    46   103 1   
   107    49   104 1   
   108    50   104 2   
   109    54    56 2   
   110    55    56 2   
@<TRIPOS>SUBSTRUCTURE
     1 ZJY         1 TEMP              0 ****  ****    0 ROOT
