@<TRIPOS>MOLECULE
ZJY
  104   110     1     0     0
SMALL
No Charge or Current Charge


@<TRIPOS>ATOM
      1 C10        -16.2910   -20.4550    15.6320 c          1 ZJY       0.607100
      2 C17        -20.6410   -17.6950    13.9800 c3         1 ZJY       0.217600
      3 C21        -13.5090   -16.0000    15.7100 ca         1 ZJY       0.555300
      4 C24        -11.6030   -14.1600    15.0470 ca         1 ZJY       0.166000
      5 C26        -13.3520   -15.5100    14.3720 ca         1 ZJY       0.323300
      6 C28         -9.9140   -13.2090    17.1160 ca         1 ZJY       0.163100
      7 C01        -13.8770   -19.7380    15.7820 c5         1 ZJY       0.033700
      8 C02        -13.1710   -18.7890    16.7980 c5         1 ZJY      -0.109400
      9 C03        -14.2840   -17.7500    17.1290 c5         1 ZJY       0.164300
     10 C04        -15.5330   -18.6640    17.2820 c5         1 ZJY       0.107000
     11 C06        -13.2400   -21.1580    15.8680 c          1 ZJY       0.590100
     12 C09        -12.2580   -22.8780    14.3620 cx         1 ZJY      -0.063600
     13 C11        -17.6420   -20.7020    16.3710 c3         1 ZJY       0.068700
     14 C18        -17.7780   -22.1870    16.7930 c3         1 ZJY      -0.089400
     15 C19        -16.7550   -22.6270    17.8720 c3         1 ZJY      -0.079400
     16 C23        -11.7660   -14.6340    16.3930 ca         1 ZJY       0.306000
     17 C27        -10.9210   -14.1510    17.4060 ca         1 ZJY      -0.203000
     18 C29         -9.7560   -12.7480    15.8020 ca         1 ZJY      -0.141000
     19 C30        -10.5930   -13.2190    14.7780 ca         1 ZJY      -0.029000
     20 C32         -9.1360   -13.1200    19.4580 c3         1 ZJY       0.145900
     21 C33        -14.2490   -15.9850    13.2350 c3         1 ZJY      -0.140400
     22 C34        -11.1730   -23.4910    15.2680 c          1 ZJY       0.679100
     23 C40         -8.3490   -21.0700    16.9070 cx         1 ZJY      -0.406000
     24 C41         -6.8830   -20.8010    17.1950 cx         1 ZJY      -0.076900
     25 C42         -7.4830   -20.3700    15.8740 cx         1 ZJY      -0.076900
     26 C43         -9.4280   -20.2760    17.6550 c3         1 ZJY      -0.039100
     27 C44        -13.3730   -23.7150    13.7490 cx         1 ZJY      -0.037500
     28 C45        -13.6040   -25.1350    14.1470 c2         1 ZJY      -0.186200
     29 C46        -14.5590   -25.5690    14.9910 c2         1 ZJY      -0.192200
     30 C47        -15.6050   -24.7290    15.7120 c3         1 ZJY      -0.047200
     31 C48        -15.5000   -24.8470    17.2490 c3         1 ZJY      -0.074400
     32 C49        -12.1930   -23.2990    12.9070 cx         1 ZJY      -0.098400
     33 C50        -16.6360   -24.1620    18.0580 c3         1 ZJY      -0.066400
     34 C51        -19.8570   -17.1890    12.7540 cx         1 ZJY      -0.244000
     35 C52        -20.6550   -16.5550    11.6240 cx         1 ZJY      -0.092900
     36 C53        -20.0380   -17.9210    11.4350 cx         1 ZJY      -0.092900
     37 C54        -18.4610   -16.6250    13.1150 c3         1 ZJY       0.337000
     38 F55        -17.8900   -15.9880    12.0670 f          1 ZJY      -0.110667
     39 F56        -17.6090   -17.6080    13.4850 f          1 ZJY      -0.110667
     40 F57        -18.5340   -15.7340    14.1300 f          1 ZJY      -0.110667
     41 N05        -15.2740   -19.7290    16.2840 n          1 ZJY      -0.386800
     42 N08        -12.6740   -21.5150    14.6580 ns         1 ZJY      -0.475900
     43 N13        -18.7480   -20.3150    15.4780 ns         1 ZJY      -0.487900
     44 N22        -12.7190   -15.5430    16.7230 nb         1 ZJY      -0.758000
     45 N25        -12.4000   -14.5960    14.0350 nb         1 ZJY      -0.617000
     46 N35        -10.1790   -22.6160    15.5480 ns         1 ZJY      -0.570300
     47 O07        -13.2290   -21.8920    16.8460 o          1 ZJY      -0.568100
     48 O12        -16.0730   -20.9530    14.5310 o          1 ZJY      -0.610100
     49 O15        -20.1190   -18.9830    14.3600 os         1 ZJY      -0.453100
     50 O16        -19.0220   -18.1640    16.2130 o          1 ZJY      -0.544000
     51 O20        -14.5320   -16.9090    15.9580 os         1 ZJY      -0.442300
     52 O31         -9.0620   -12.7110    18.0800 os         1 ZJY      -0.335100
     53 O36        -11.1760   -24.6410    15.6830 o          1 ZJY      -0.546100
     54 O38         -7.8380   -23.5150    15.8310 o          1 ZJY      -0.514000
     55 O39         -9.3970   -23.4070    17.8370 o          1 ZJY      -0.514000
     56 S37         -8.8980   -22.8340    16.5820 s6         1 ZJY       1.253800
     57 H172       -20.6200   -16.9650    14.8010 h1         1 ZJY       0.075700
     58 H171       -21.6970   -17.8090    13.6990 h1         1 ZJY       0.075700
     59 H011       -13.8290   -19.3500    14.7560 h1         1 ZJY       0.078700
     60 H022       -12.8800   -19.3210    17.7120 hc         1 ZJY       0.075200
     61 H021       -12.2550   -18.3440    16.3920 hc         1 ZJY       0.075200
     62 H031       -14.1030   -17.1470    18.0300 h1         1 ZJY       0.089700
     63 H041       -16.4600   -18.1120    17.0780 h1         1 ZJY       0.072200
     64 H042       -15.5950   -19.0870    18.2940 h1         1 ZJY       0.072200
     65 H111       -17.6850   -20.0840    17.2750 h1         1 ZJY       0.065700
     66 H181       -18.7890   -22.3580    17.1830 hc         1 ZJY       0.056700
     67 H182       -17.6830   -22.8180    15.9020 hc         1 ZJY       0.056700
     68 H192       -15.7620   -22.2200    17.6530 hc         1 ZJY       0.049700
     69 H191       -17.0570   -22.1790    18.8270 hc         1 ZJY       0.049700
     70 H271       -11.0640   -14.5250    18.4140 ha         1 ZJY       0.133000
     71 H291        -8.9800   -12.0210    15.5770 ha         1 ZJY       0.134000
     72 H301       -10.4600   -12.8520    13.7630 ha         1 ZJY       0.135000
     73 H321        -8.3690   -12.6030    20.0480 h1         1 ZJY       0.044367
     74 H322       -10.1160   -12.8750    19.8850 h1         1 ZJY       0.044367
     75 H323        -8.9680   -14.2000    19.5540 h1         1 ZJY       0.044367
     76 H333       -13.9160   -15.6040    12.2630 hc         1 ZJY       0.063033
     77 H332       -14.2590   -17.0800    13.1770 hc         1 ZJY       0.063033
     78 H331       -15.2800   -15.6480    13.3920 hc         1 ZJY       0.063033
     79 H412        -6.1870   -21.6380    17.1820 hc         1 ZJY       0.088950
     80 H411        -6.6330   -20.0230    17.9130 hc         1 ZJY       0.088950
     81 H421        -7.1830   -20.9190    14.9830 hc         1 ZJY       0.088950
     82 H422        -7.6310   -19.3040    15.7130 hc         1 ZJY       0.088950
     83 H432        -9.1080   -19.2440    17.8420 hc         1 ZJY       0.051367
     84 H431       -10.3630   -20.2290    17.0840 hc         1 ZJY       0.051367
     85 H433        -9.6530   -20.7290    18.6290 hc         1 ZJY       0.051367
     86 H441       -14.3000   -23.1920    13.5250 hc         1 ZJY       0.103700
     87 H451       -12.9210   -25.8600    13.6980 ha         1 ZJY       0.188000
     88 H461       -14.6330   -26.6370    15.2070 ha         1 ZJY       0.167000
     89 H471       -15.5150   -23.6730    15.4350 hc         1 ZJY       0.046200
     90 H472       -16.6050   -25.0510    15.3970 hc         1 ZJY       0.046200
     91 H482       -15.4860   -25.9110    17.5180 hc         1 ZJY       0.048700
     92 H481       -14.5340   -24.4370    17.5690 hc         1 ZJY       0.048700
     93 H491       -11.4730   -24.0650    12.6280 hc         1 ZJY       0.086700
     94 H492       -12.3570   -22.5400    12.1460 hc         1 ZJY       0.086700
     95 H501       -17.5960   -24.6410    17.8260 hc         1 ZJY       0.036200
     96 H502       -16.4490   -24.3620    19.1200 hc         1 ZJY       0.036200
     97 H522       -20.2200   -15.7240    11.0720 hc         1 ZJY       0.088200
     98 H521       -21.7370   -16.5020    11.7190 hc         1 ZJY       0.088200
     99 H532       -20.7060   -18.7790    11.4140 hc         1 ZJY       0.088200
    100 H531       -19.1830   -18.0020    10.7670 hc         1 ZJY       0.088200
    101 H081       -12.7400   -20.8380    13.9060 hn         1 ZJY       0.325500
    102 H131       -19.0330   -20.9460    14.7400 hn         1 ZJY       0.339500
    103 H351       -10.2200   -21.6860    15.1720 hn         1 ZJY       0.340500
    104 C14        -19.2830   -19.0620    15.4300 c          1 ZJY       0.643100
@<TRIPOS>BOND
     1     1    13 1   
     2     1    41 1   
     3     1    48 2   
     4     2    34 1   
     5     2    49 1   
     6     2    57 1   
     7     2    58 1   
     8     3     5 ar  
     9     3    44 ar  
    10     3    51 1   
    11     4    16 ar  
    12     4    19 ar  
    13     4    45 ar  
    14     5    21 1   
    15     5    45 ar  
    16     6    17 ar  
    17     6    18 ar  
    18     6    52 1   
    19     7     8 1   
    20     7    11 1   
    21     7    41 1   
    22     7    59 1   
    23     8     9 1   
    24     8    60 1   
    25     8    61 1   
    26     9    10 1   
    27     9    51 1   
    28     9    62 1   
    29    10    41 1   
    30    10    63 1   
    31    10    64 1   
    32    11    42 1   
    33    11    47 2   
    34    12    22 1   
    35    12    27 1   
    36    12    32 1   
    37    12    42 1   
    38    13    14 1   
    39    13    43 1   
    40    13    65 1   
    41    14    15 1   
    42    14    66 1   
    43    14    67 1   
    44    15    33 1   
    45    15    68 1   
    46    15    69 1   
    47    16    17 ar  
    48    16    44 ar  
    49    17    70 1   
    50    18    19 ar  
    51    18    71 1   
    52    19    72 1   
    53    20    52 1   
    54    20    73 1   
    55    20    74 1   
    56    20    75 1   
    57    21    76 1   
    58    21    77 1   
    59    21    78 1   
    60    22    46 1   
    61    22    53 2   
    62    23    24 1   
    63    23    25 1   
    64    23    26 1   
    65    23    56 1   
    66    24    25 1   
    67    24    79 1   
    68    24    80 1   
    69    25    81 1   
    70    25    82 1   
    71    26    83 1   
    72    26    84 1   
    73    26    85 1   
    74    27    28 1   
    75    27    32 1   
    76    27    86 1   
    77    28    29 2   
    78    28    87 1   
    79    29    30 1   
    80    29    88 1   
    81    30    31 1   
    82    30    89 1   
    83    30    90 1   
    84    31    33 1   
    85    31    91 1   
    86    31    92 1   
    87    32    93 1   
    88    32    94 1   
    89    33    95 1   
    90    33    96 1   
    91    34    35 1   
    92    34    36 1   
    93    34    37 1   
    94    35    36 1   
    95    35    97 1   
    96    35    98 1   
    97    36    99 1   
    98    36   100 1   
    99    37    38 1   
   100    37    39 1   
   101    37    40 1   
   102    42   101 1   
   103    43   102 1   
   104    43   104 1   
   105    46    56 1   
   106    46   103 1   
   107    49   104 1   
   108    50   104 2   
   109    54    56 2   
   110    55    56 2   
@<TRIPOS>SUBSTRUCTURE
     1 ZJY         1 TEMP              0 ****  ****    0 ROOT
