@<TRIPOS>MOLECULE
ZK0
   57    59     1     0     0
SMALL
No Charge or Current Charge


@<TRIPOS>ATOM
      1 N1         -20.5010    13.5090    24.4970 ne         1 ZK0      -0.542100
      2 N3         -23.0860     9.8180    32.0880 n          1 ZK0      -0.445800
      3 C4         -22.8720    12.9920    25.1380 ca         1 ZK0      -0.079000
      4 C5         -23.7270    12.7280    26.2270 ca         1 ZK0      -0.062000
      5 C6         -23.2250    12.6840    27.5550 ca         1 ZK0      -0.148600
      6 C7         -21.8510    12.9540    27.7840 ca         1 ZK0      -0.055000
      7 C8         -21.0150    13.2130    26.6880 ca         1 ZK0      -0.129300
      8 C13        -22.6150    10.7220    29.7650 c6         1 ZK0       0.088500
      9 C15        -23.8260    11.0940    32.3180 c6         1 ZK0       0.097000
     10 C17        -22.6380     8.9860    33.1310 c          1 ZK0       0.661100
     11 C20        -23.0290     9.7640    36.8010 c3         1 ZK0      -0.103767
     12 C21        -23.2510     7.4540    35.8170 c3         1 ZK0      -0.103767
     13 C2         -19.3820    13.6780    25.1440 c2         1 ZK0       0.418300
     14 C3         -21.5190    13.2240    25.4020 ca         1 ZK0       0.117400
     15 C9         -19.5270    13.5180    26.6760 c5         1 ZK0      -0.101000
     16 C11        -19.1930    14.8180    27.4490 c3         1 ZK0      -0.066600
     17 C12        -24.1810    12.4070    28.6960 c          1 ZK0       0.610700
     18 O1         -25.3330    12.8220    28.6510 o          1 ZK0      -0.600100
     19 N2         -23.7080    11.7360    29.8470 n          1 ZK0      -0.414800
     20 C14        -22.8330     9.4750    30.6620 c6         1 ZK0       0.097000
     21 C16        -24.5610    11.6390    31.0630 c6         1 ZK0       0.088500
     22 O2         -22.0740     7.9260    32.9090 o          1 ZK0      -0.651100
     23 N4         -22.8800     9.4600    34.4030 ns         1 ZK0      -0.525900
     24 C18        -22.5350     8.8220    35.6790 c3         1 ZK0       0.147400
     25 C19        -21.0000     8.6480    35.8060 c3         1 ZK0      -0.103767
     26 H4         -23.2510    13.0170    24.1200 ha         1 ZK0       0.136000
     27 H5         -24.7830    12.5440    26.0380 ha         1 ZK0       0.132000
     28 H6         -21.4430    12.9900    28.7900 ha         1 ZK0       0.120000
     29 H9         -17.6150    12.5340    27.1420 hc         1 ZK0       0.042867
     30 H7         -18.9040    12.1730    28.3010 hc         1 ZK0       0.042867
     31 H8         -18.9100    11.4100    26.7050 hc         1 ZK0       0.042867
     32 H14        -22.4940    10.3840    28.7260 h1         1 ZK0       0.061450
     33 H13        -21.6710    11.1940    30.0700 h1         1 ZK0       0.061450
     34 H17        -24.5730    10.9540    33.1120 h1         1 ZK0       0.056950
     35 H18        -23.1120    11.8540    32.6650 h1         1 ZK0       0.056950
     36 H27        -22.8040     9.3480    37.7910 hc         1 ZK0       0.045144
     37 H26        -22.5460    10.7460    36.7300 hc         1 ZK0       0.045144
     38 H25        -24.1140     9.9150    36.7380 hc         1 ZK0       0.045144
     39 H28        -23.0770     7.0240    36.8110 hc         1 ZK0       0.045144
     40 H29        -24.3340     7.5660    35.6810 hc         1 ZK0       0.045144
     41 H30        -22.8890     6.7310    35.0780 hc         1 ZK0       0.045144
     42 H1         -18.2190    14.0660    23.3570 hc         1 ZK0       0.057700
     43 H2         -17.6820    14.9610    24.7870 hc         1 ZK0       0.057700
     44 H3         -17.3310    13.2290    24.6400 hc         1 ZK0       0.057700
     45 H12        -18.1320    15.0780    27.3560 hc         1 ZK0       0.042867
     46 H11        -19.7770    15.6650    27.0680 hc         1 ZK0       0.042867
     47 H10        -19.4180    14.7150    28.5180 hc         1 ZK0       0.042867
     48 H15        -23.6900     8.9010    30.2810 h1         1 ZK0       0.056950
     49 H16        -21.9470     8.8300    30.5780 h1         1 ZK0       0.056950
     50 H20        -25.4130    10.9810    30.8390 h1         1 ZK0       0.061450
     51 H19        -24.9720    12.6310    31.2990 h1         1 ZK0       0.061450
     52 H21        -23.3420    10.3560    34.4490 hn         1 ZK0       0.303500
     53 H24        -20.7340     8.2670    36.7990 hc         1 ZK0       0.045144
     54 H22        -20.6100     7.9400    35.0660 hc         1 ZK0       0.045144
     55 H23        -20.4870     9.6070    35.6620 hc         1 ZK0       0.045144
     56 C10        -18.6900    12.3420    27.2390 c3         1 ZK0      -0.066600
     57 C1         -18.0830    14.0010    24.4420 c3         1 ZK0      -0.127400
@<TRIPOS>BOND
     1     1    13 2   
     2     1    14 1   
     3     2     9 1   
     4     2    10 1   
     5     2    20 1   
     6     3     4 ar  
     7     3    14 ar  
     8     3    26 1   
     9     4     5 ar  
    10     4    27 1   
    11     5     6 ar  
    12     5    17 1   
    13     6     7 ar  
    14     6    28 1   
    15     7    14 ar  
    16     7    15 1   
    17     8    19 1   
    18     8    20 1   
    19     8    32 1   
    20     8    33 1   
    21     9    21 1   
    22     9    34 1   
    23     9    35 1   
    24    10    22 2   
    25    10    23 1   
    26    11    24 1   
    27    11    36 1   
    28    11    37 1   
    29    11    38 1   
    30    12    24 1   
    31    12    39 1   
    32    12    40 1   
    33    12    41 1   
    34    13    15 1   
    35    13    57 1   
    36    15    16 1   
    37    15    56 1   
    38    16    45 1   
    39    16    46 1   
    40    16    47 1   
    41    17    18 2   
    42    17    19 1   
    43    19    21 1   
    44    20    48 1   
    45    20    49 1   
    46    21    50 1   
    47    21    51 1   
    48    23    24 1   
    49    23    52 1   
    50    24    25 1   
    51    25    53 1   
    52    25    54 1   
    53    25    55 1   
    54    29    56 1   
    55    30    56 1   
    56    31    56 1   
    57    42    57 1   
    58    43    57 1   
    59    44    57 1   
@<TRIPOS>SUBSTRUCTURE
     1 ZK0         1 TEMP              0 ****  ****    0 ROOT
