@<TRIPOS>MOLECULE
ZK0
   57    59     1     0     0
SMALL
abcg2


@<TRIPOS>ATOM
      1 N1         -20.4960    13.2440    24.5270 ne         1 ZK0      -0.542100
      2 N3         -23.2010     9.8680    32.0770 n          1 ZK0      -0.445800
      3 C4         -22.8050    12.6220    25.2960 ca         1 ZK0      -0.079000
      4 C5         -23.6200    12.4420    26.4100 ca         1 ZK0      -0.062000
      5 C6         -23.1240    12.6120    27.7060 ca         1 ZK0      -0.148600
      6 C7         -21.7900    12.9980    27.9050 ca         1 ZK0      -0.055000
      7 C8         -20.9870    13.1950    26.8020 ca         1 ZK0      -0.129300
      8 C13        -22.5270    10.7950    29.9210 c6         1 ZK0       0.088500
      9 C15        -23.8030    11.1760    32.3150 c6         1 ZK0       0.097000
     10 C17        -22.8010     9.0190    33.0770 c          1 ZK0       0.661100
     11 C20        -22.9300     9.7160    36.7340 c3         1 ZK0      -0.103767
     12 C21        -23.4090     7.4900    35.7020 c3         1 ZK0      -0.103767
     13 C2         -19.4130    13.5800    25.1430 c2         1 ZK0       0.418300
     14 C3         -21.4880    13.0010    25.5100 ca         1 ZK0       0.117400
     15 C9         -19.5410    13.6060    26.6690 c5         1 ZK0      -0.101000
     16 C11        -19.2840    15.0180    27.2250 c3         1 ZK0      -0.066600
     17 C12        -24.0690    12.4500    28.8550 c          1 ZK0       0.610700
     18 O1         -25.1830    12.9870    28.8250 o          1 ZK0      -0.600100
     19 N2         -23.6610    11.7280    29.9240 n          1 ZK0      -0.414800
     20 C14        -22.8860     9.5350    30.6910 c6         1 ZK0       0.097000
     21 C16        -24.5530    11.6520    31.0830 c6         1 ZK0       0.088500
     22 O2         -22.3700     7.8850    32.8200 o          1 ZK0      -0.651100
     23 N4         -22.9320     9.4980    34.3460 ns         1 ZK0      -0.525900
     24 C18        -22.5780     8.7720    35.5810 c3         1 ZK0       0.147400
     25 C19        -21.0770     8.4550    35.6200 c3         1 ZK0      -0.103767
     26 H4         -23.1880    12.4750    24.2940 ha         1 ZK0       0.136000
     27 H5         -24.6570    12.1600    26.2800 ha         1 ZK0       0.132000
     28 H6         -21.4080    13.1490    28.9060 ha         1 ZK0       0.120000
     29 H9         -17.5510    12.8720    27.1590 hc         1 ZK0       0.042867
     30 H7         -18.7730    12.5600    28.4000 hc         1 ZK0       0.042867
     31 H8         -18.7500    11.5880    26.9210 hc         1 ZK0       0.042867
     32 H14        -22.2800    10.5300    28.8970 h1         1 ZK0       0.061450
     33 H13        -21.6460    11.2600    30.3730 h1         1 ZK0       0.061450
     34 H17        -24.5250    11.1080    33.1300 h1         1 ZK0       0.056950
     35 H18        -23.0450    11.9170    32.5960 h1         1 ZK0       0.056950
     36 H27        -22.6860     9.2440    37.6870 hc         1 ZK0       0.045144
     37 H26        -22.3640    10.6480    36.6600 hc         1 ZK0       0.045144
     38 H25        -23.9950     9.9550    36.7290 hc         1 ZK0       0.045144
     39 H28        -23.1840     6.9920    36.6470 hc         1 ZK0       0.045144
     40 H29        -24.4740     7.7290    35.6830 hc         1 ZK0       0.045144
     41 H30        -23.1900     6.8060    34.8860 hc         1 ZK0       0.045144
     42 H1         -18.2780    13.8270    23.3590 hc         1 ZK0       0.057700
     43 H2         -17.8280    14.9270    24.6830 hc         1 ZK0       0.057700
     44 H3         -17.3460    13.2430    24.7570 hc         1 ZK0       0.057700
     45 H12        -18.2480    15.3140    27.0540 hc         1 ZK0       0.042867
     46 H11        -19.9400    15.7500    26.7520 hc         1 ZK0       0.042867
     47 H10        -19.4720    15.0280    28.2990 hc         1 ZK0       0.042867
     48 H15        -23.7270     9.0290    30.2050 h1         1 ZK0       0.056950
     49 H16        -22.0380     8.8540    30.6800 h1         1 ZK0       0.056950
     50 H20        -25.3890    10.9780    30.8720 h1         1 ZK0       0.061450
     51 H19        -24.9670    12.6390    31.2730 h1         1 ZK0       0.061450
     52 H21        -23.0770    10.4860    34.4610 hn         1 ZK0       0.303500
     53 H24        -20.8220     7.9710    36.5650 hc         1 ZK0       0.045144
     54 H22        -20.8010     7.7920    34.8030 hc         1 ZK0       0.045144
     55 H23        -20.4940     9.3750    35.5360 hc         1 ZK0       0.045144
     56 C10        -18.5910    12.5880    27.3250 c3         1 ZK0      -0.066600
     57 C1         -18.1490    13.9110    24.4370 c3         1 ZK0      -0.127400
@<TRIPOS>BOND
     1     1    13 2   
     2     1    14 1   
     3     2     9 1   
     4     2    10 1   
     5     2    20 1   
     6     3     4 ar  
     7     3    14 ar  
     8     3    26 1   
     9     4     5 ar  
    10     4    27 1   
    11     5     6 ar  
    12     5    17 1   
    13     6     7 ar  
    14     6    28 1   
    15     7    14 ar  
    16     7    15 1   
    17     8    19 1   
    18     8    20 1   
    19     8    32 1   
    20     8    33 1   
    21     9    21 1   
    22     9    34 1   
    23     9    35 1   
    24    10    22 2   
    25    10    23 1   
    26    11    24 1   
    27    11    36 1   
    28    11    37 1   
    29    11    38 1   
    30    12    24 1   
    31    12    39 1   
    32    12    40 1   
    33    12    41 1   
    34    13    15 1   
    35    13    57 1   
    36    15    16 1   
    37    15    56 1   
    38    16    45 1   
    39    16    46 1   
    40    16    47 1   
    41    17    18 2   
    42    17    19 1   
    43    19    21 1   
    44    20    48 1   
    45    20    49 1   
    46    21    50 1   
    47    21    51 1   
    48    23    24 1   
    49    23    52 1   
    50    24    25 1   
    51    25    53 1   
    52    25    54 1   
    53    25    55 1   
    54    29    56 1   
    55    30    56 1   
    56    31    56 1   
    57    42    57 1   
    58    43    57 1   
    59    44    57 1   
@<TRIPOS>SUBSTRUCTURE
     1 ZK0         1 TEMP              0 ****  ****    0 ROOT
