@<TRIPOS>MOLECULE
ZK1
   40    42     1     0     0
SMALL
No Charge or Current Charge


@<TRIPOS>ATOM
      1 OAA         -3.8360    -3.7430     0.0800 o          1 ZK1      -0.560000
      2 OAB         -4.6480    -1.0310     0.7360 o          1 ZK1      -0.491000
      3 OAC         -1.9260     2.9870    -0.7000 o          1 ZK1      -0.908833
      4 OAD         -4.2290     3.1940     0.0860 o          1 ZK1      -0.908833
      5 OAE         -3.6470     1.4720    -1.5510 o          1 ZK1      -0.908833
      6 FAF          3.2730    -3.1520    -0.6150 f          1 ZK1      -0.132000
      7 FAG          3.9390    -1.5730     0.7040 f          1 ZK1      -0.132000
      8 FAH          3.6620    -1.1840    -1.4230 f          1 ZK1      -0.132000
      9 CAI          0.0000     0.2800     0.4210 ca         1 ZK1      -0.138000
     10 CAJ          0.6440    -2.3820    -0.1340 ca         1 ZK1      -0.103000
     11 CAK          4.1450     2.2060     1.4370 c6         1 ZK1       0.159100
     12 CAL          3.7480     2.6980    -0.8840 c6         1 ZK1       0.159100
     13 CAM          2.7940     1.4390     1.5590 c6         1 ZK1       0.133300
     14 CAN          2.3800     1.9510    -0.8610 c6         1 ZK1       0.133300
     15 CAO         -2.8040     1.0670     1.0250 c3         1 ZK1      -0.231000
     16 NAP         -1.6920    -2.9990     0.0230 ns         1 ZK1      -0.385100
     17 OAQ          4.0630     3.2340     0.4230 os         1 ZK1      -0.457000
     18 CAR          1.3370    -0.0770     0.1860 ca         1 ZK1       0.274000
     19 CAS          1.6780    -1.4210    -0.0910 ca         1 ZK1      -0.226300
     20 CAT         -3.0420    -2.8120     0.1920 c          1 ZK1       0.480000
     21 CAU         -3.4630    -1.3110     0.5450 c          1 ZK1       0.494000
     22 CAV         -0.6890    -2.0160     0.1060 ca         1 ZK1      -0.025400
     23 CAW         -1.0330    -0.6810     0.4100 ca         1 ZK1       0.120600
     24 NAX          2.3190     0.9300     0.2330 nh         1 ZK1      -0.779400
     25 NAY         -2.4260    -0.3350     0.6490 n          1 ZK1      -0.190000
     26 PBA         -3.1730     2.2420    -0.3640 p5         1 ZK1       1.273500
     27 HAI         -0.2080     1.3250     0.6100 ha         1 ZK1       0.226000
     28 HAJ          0.8670    -3.4230    -0.3600 ha         1 ZK1       0.103000
     29 HAK          4.4000     2.6710     2.4000 h1         1 ZK1       0.030700
     30 HAKA         4.9500     1.5050     1.1740 h1         1 ZK1       0.030700
     31 HAL          4.5470     2.0060    -1.1890 h1         1 ZK1       0.030700
     32 HALA         3.7140     3.5210    -1.6110 h1         1 ZK1       0.030700
     33 HAM          2.9300     0.6040     2.2620 h1         1 ZK1       0.070200
     34 HAMA         2.0430     2.1140     1.9970 h1         1 ZK1       0.070200
     35 HAN          1.5770     2.6920    -0.7360 h1         1 ZK1       0.070200
     36 HANA         2.2310     1.4700    -1.8390 h1         1 ZK1       0.070200
     37 HAO         -3.7110     1.0440     1.6390 h1         1 ZK1       0.039200
     38 HAOA        -2.0310     1.5130     1.6580 h1         1 ZK1       0.039200
     39 HNAP        -1.3970    -3.9430    -0.1980 hn         1 ZK1       0.297500
     40 CAZ          3.1370    -1.8310    -0.3560 c3         1 ZK1       0.371300
@<TRIPOS>BOND
     1     1    20 2   
     2     2    21 2   
     3     3    26 1   
     4     4    26 1   
     5     5    26 1   
     6     6    40 1   
     7     7    40 1   
     8     8    40 1   
     9     9    18 ar  
    10     9    23 ar  
    11     9    27 1   
    12    10    19 ar  
    13    10    22 ar  
    14    10    28 1   
    15    11    13 1   
    16    11    17 1   
    17    11    29 1   
    18    11    30 1   
    19    12    14 1   
    20    12    17 1   
    21    12    31 1   
    22    12    32 1   
    23    13    24 1   
    24    13    33 1   
    25    13    34 1   
    26    14    24 1   
    27    14    35 1   
    28    14    36 1   
    29    15    25 1   
    30    15    26 1   
    31    15    37 1   
    32    15    38 1   
    33    16    20 1   
    34    16    22 1   
    35    16    39 1   
    36    18    19 ar  
    37    18    24 1   
    38    19    40 1   
    39    20    21 1   
    40    21    25 1   
    41    22    23 ar  
    42    23    25 1   
@<TRIPOS>SUBSTRUCTURE
     1 ZK1         1 TEMP              0 ****  ****    0 ROOT
