@<TRIPOS>MOLECULE
ZK1
   40    42     1     0     0
SMALL
abcg2


@<TRIPOS>ATOM
      1 OAA         -3.8870    -3.4590    -0.0820 o          1 ZK1      -0.560000
      2 OAB         -4.4930    -0.9310     0.6240 o          1 ZK1      -0.491000
      3 OAC         -1.2430     2.9060    -0.2660 o          1 ZK1      -0.908833
      4 OAD         -3.7010     3.2970     0.3240 o          1 ZK1      -0.908833
      5 OAE         -3.0740     1.5440    -1.4640 o          1 ZK1      -0.908833
      6 FAF          3.2010    -3.2070    -0.5240 f          1 ZK1      -0.132000
      7 FAG          3.8750    -1.6180     0.7470 f          1 ZK1      -0.132000
      8 FAH          3.6400    -1.2860    -1.3690 f          1 ZK1      -0.132000
      9 CAI          0.0490     0.2250     0.4310 ca         1 ZK1      -0.138000
     10 CAJ          0.6500    -2.4130    -0.1510 ca         1 ZK1      -0.103000
     11 CAK          3.8000     2.4060     1.3760 c6         1 ZK1       0.159100
     12 CAL          3.5180     2.6640    -0.9180 c6         1 ZK1       0.159100
     13 CAM          2.5790     1.5110     1.4640 c6         1 ZK1       0.133300
     14 CAN          2.2900     1.7750    -0.9050 c6         1 ZK1       0.133300
     15 CAO         -2.6070     0.9850     1.1400 c3         1 ZK1      -0.231000
     16 NAP         -1.6870    -2.9550    -0.0410 ns         1 ZK1      -0.385100
     17 OAQ          3.6920     3.3290     0.3150 os         1 ZK1      -0.457000
     18 CAR          1.3650    -0.1440     0.1970 ca         1 ZK1       0.274000
     19 CAS          1.6700    -1.4780    -0.0780 ca         1 ZK1      -0.226300
     20 CAT         -2.9940    -2.6520     0.0740 c          1 ZK1       0.480000
     21 CAU         -3.3240    -1.2200     0.4620 c          1 ZK1       0.494000
     22 CAV         -0.6640    -2.0330     0.0690 ca         1 ZK1      -0.025400
     23 CAW         -0.9800    -0.7110     0.3940 ca         1 ZK1       0.120600
     24 NAX          2.4020     0.8240     0.1950 nh         1 ZK1      -0.779400
     25 NAY         -2.2940    -0.3640     0.6750 n          1 ZK1      -0.190000
     26 PBA         -2.6590     2.3130    -0.2130 p5         1 ZK1       1.273500
     27 HAI         -0.1850     1.2760     0.5640 ha         1 ZK1       0.226000
     28 HAJ          0.8520    -3.4510    -0.3830 ha         1 ZK1       0.103000
     29 HAK          3.9100     2.9790     2.2980 h1         1 ZK1       0.030700
     30 HAKA         4.6960     1.7810     1.2530 h1         1 ZK1       0.030700
     31 HAL          4.4030     2.0570    -1.1540 h1         1 ZK1       0.030700
     32 HALA         3.4170     3.4290    -1.6900 h1         1 ZK1       0.030700
     33 HAM          2.7310     0.7760     2.2560 h1         1 ZK1       0.070200
     34 HAMA         1.7010     2.1150     1.7420 h1         1 ZK1       0.070200
     35 HAN          1.3770     2.3850    -0.8310 h1         1 ZK1       0.070200
     36 HANA         2.2410     1.2290    -1.8500 h1         1 ZK1       0.070200
     37 HAO         -3.5880     0.9300     1.6050 h1         1 ZK1       0.039200
     38 HAOA        -1.8980     1.2380     1.9310 h1         1 ZK1       0.039200
     39 HNAP        -1.4510    -3.9130    -0.2680 hn         1 ZK1       0.297500
     40 CAZ          3.0920    -1.8870    -0.3050 c3         1 ZK1       0.371300
@<TRIPOS>BOND
     1     1    20 2   
     2     2    21 2   
     3     3    26 1   
     4     4    26 1   
     5     5    26 1   
     6     6    40 1   
     7     7    40 1   
     8     8    40 1   
     9     9    18 ar  
    10     9    23 ar  
    11     9    27 1   
    12    10    19 ar  
    13    10    22 ar  
    14    10    28 1   
    15    11    13 1   
    16    11    17 1   
    17    11    29 1   
    18    11    30 1   
    19    12    14 1   
    20    12    17 1   
    21    12    31 1   
    22    12    32 1   
    23    13    24 1   
    24    13    33 1   
    25    13    34 1   
    26    14    24 1   
    27    14    35 1   
    28    14    36 1   
    29    15    25 1   
    30    15    26 1   
    31    15    37 1   
    32    15    38 1   
    33    16    20 1   
    34    16    22 1   
    35    16    39 1   
    36    18    19 ar  
    37    18    24 1   
    38    19    40 1   
    39    20    21 1   
    40    21    25 1   
    41    22    23 ar  
    42    23    25 1   
@<TRIPOS>SUBSTRUCTURE
     1 ZK1         1 TEMP              0 ****  ****    0 ROOT
