@<TRIPOS>MOLECULE
ZK2
   19    19     1     0     0
SMALL
abcg2


@<TRIPOS>ATOM
      1 C1         -45.8060    27.4900    66.2020 c3         1 ZK2       0.207900
      2 C2         -47.1880    27.9930    66.5070 ca         1 ZK2      -0.089300
      3 C3         -47.6330    29.1690    65.9070 ca         1 ZK2      -0.089000
      4 C4         -48.8970    29.6840    66.1760 ca         1 ZK2      -0.118000
      5 C5         -49.7300    29.0120    67.0610 ca         1 ZK2      -0.100000
      6 C6         -49.2950    27.8350    67.6630 ca         1 ZK2      -0.117000
      7 C7         -48.0300    27.3080    67.4020 ca         1 ZK2      -0.050300
      8 C8         -47.5970    26.0270    68.0630 c3         1 ZK2      -0.049800
      9 O1         -44.9370    27.8170    67.3020 oh         1 ZK2      -0.662000
     10 H1         -45.8150    26.4070    66.0480 h1         1 ZK2       0.026700
     11 H2         -45.4380    27.9600    65.2850 h1         1 ZK2       0.026700
     12 H3         -46.9770    29.6860    65.2170 ha         1 ZK2       0.110000
     13 H4         -49.2260    30.5990    65.6990 ha         1 ZK2       0.113000
     14 H5         -50.7180    29.3980    67.2830 ha         1 ZK2       0.112000
     15 H6         -49.9500    27.3120    68.3500 ha         1 ZK2       0.110000
     16 H7         -46.6760    26.1640    68.6310 hc         1 ZK2       0.044367
     17 H8         -48.3700    25.6620    68.7390 hc         1 ZK2       0.044367
     18 H9         -47.4010    25.2470    67.3220 hc         1 ZK2       0.044367
     19 H10        -44.1020    27.3510    67.1690 ho         1 ZK2       0.437000
@<TRIPOS>BOND
     1     1     2 1   
     2     1     9 1   
     3     1    10 1   
     4     1    11 1   
     5     2     3 ar  
     6     2     7 ar  
     7     3     4 ar  
     8     3    12 1   
     9     4     5 ar  
    10     4    13 1   
    11     5     6 ar  
    12     5    14 1   
    13     6     7 ar  
    14     6    15 1   
    15     7     8 1   
    16     8    16 1   
    17     8    17 1   
    18     8    18 1   
    19     9    19 1   
@<TRIPOS>SUBSTRUCTURE
     1 ZK2         1 TEMP              0 ****  ****    0 ROOT
