@<TRIPOS>MOLECULE
ZK2
   19    19     1     0     0
SMALL
No Charge or Current Charge


@<TRIPOS>ATOM
      1 C1         -45.7690    27.4650    66.2330 c3         1 ZK2       0.207900
      2 C2         -47.1730    27.9850    66.5420 ca         1 ZK2      -0.089300
      3 C3         -47.5950    29.1910    65.9450 ca         1 ZK2      -0.089000
      4 C4         -48.8780    29.7040    66.1940 ca         1 ZK2      -0.118000
      5 C5         -49.7540    29.0140    67.0450 ca         1 ZK2      -0.100000
      6 C6         -49.3450    27.8130    67.6470 ca         1 ZK2      -0.117000
      7 C7         -48.0580    27.2900    67.4050 ca         1 ZK2      -0.050300
      8 C8         -47.6510    25.9830    68.0810 c3         1 ZK2      -0.049800
      9 O1         -44.8340    27.9280    67.2150 oh         1 ZK2      -0.662000
     10 H1         -45.7740    26.3680    66.1960 h1         1 ZK2       0.026700
     11 H2         -45.4680    27.8140    65.2360 h1         1 ZK2       0.026700
     12 H3         -46.9230    29.7350    65.2840 ha         1 ZK2       0.110000
     13 H4         -49.1930    30.6350    65.7280 ha         1 ZK2       0.113000
     14 H5         -50.7490    29.4090    67.2390 ha         1 ZK2       0.112000
     15 H6         -50.0330    27.2880    68.3050 ha         1 ZK2       0.110000
     16 H7         -46.7080    26.0960    68.6290 hc         1 ZK2       0.044367
     17 H8         -48.4050    25.6440    68.8010 hc         1 ZK2       0.044367
     18 H9         -47.5210    25.1820    67.3430 hc         1 ZK2       0.044367
     19 H10        -43.9550    27.5750    66.9560 ho         1 ZK2       0.437000
@<TRIPOS>BOND
     1     1     2 1   
     2     1     9 1   
     3     1    10 1   
     4     1    11 1   
     5     2     3 ar  
     6     2     7 ar  
     7     3     4 ar  
     8     3    12 1   
     9     4     5 ar  
    10     4    13 1   
    11     5     6 ar  
    12     5    14 1   
    13     6     7 ar  
    14     6    15 1   
    15     7     8 1   
    16     8    16 1   
    17     8    17 1   
    18     8    18 1   
    19     9    19 1   
@<TRIPOS>SUBSTRUCTURE
     1 ZK2         1 TEMP              0 ****  ****    0 ROOT
