@<TRIPOS>MOLECULE
ZK5
   56    59     1     0     0
SMALL
No Charge or Current Charge


@<TRIPOS>ATOM
      1 C2          -1.7950     0.2430    -4.7000 c6         1 ZK5      -0.179400
      2 C3          -0.4630     0.6140    -5.3490 c          1 ZK5       0.576300
      3 C4           0.7460     0.1240    -4.6440 ce         1 ZK5      -0.309200
      4 C5           0.7410    -0.3400    -3.3710 c2         1 ZK5      -0.034400
      5 C6           2.0180    -0.8970    -2.7430 c6         1 ZK5      -0.049200
      6 C7           2.2670    -0.3680    -1.3180 c6         1 ZK5      -0.068400
      7 C1          -1.7140     0.3860    -3.1630 c6         1 ZK5      -0.066400
      8 C8           1.0320    -0.5700    -0.3940 c6         1 ZK5      -0.060700
      9 C9          -0.2560     0.0800    -1.0340 c6         1 ZK5       0.228000
     10 C10         -0.5450    -0.4540    -2.5170 c6         1 ZK5      -0.020800
     11 C11         -1.5030     0.0480    -0.0440 c6         1 ZK5       0.158300
     12 C12         -1.1480     0.5760     1.3860 c6         1 ZK5      -0.098400
     13 C13          0.1160    -0.1040     2.0270 c5         1 ZK5      -0.018000
     14 C14          1.3030     0.0380     1.0200 c5         1 ZK5      -0.069700
     15 C15          2.4970    -0.5190     1.8400 c5         1 ZK5      -0.065400
     16 C16          2.2360     0.0360     3.2820 c5         1 ZK5      -0.099400
     17 C17          0.7760     0.6600     3.2600 c5         1 ZK5       0.080000
     18 C18         -0.2400    -1.5910     2.4030 c3         1 ZK5      -0.095100
     19 C19         -0.9310    -1.9760    -2.5810 c3         1 ZK5      -0.075100
     20 C20          0.0010     0.3560     4.6170 c          1 ZK5       0.548100
     21 C21         -1.4020     1.0100     4.7840 c3         1 ZK5       0.061600
     22 F9           0.0540     1.4570    -1.1820 f          1 ZK5      -0.269000
     23 O1          -0.4010     1.2470    -6.3940 o          1 ZK5      -0.529100
     24 O2          -2.1410    -1.2350     0.0600 oh         1 ZK5      -0.659000
     25 O3           0.8640     2.0910     3.0620 oh         1 ZK5      -0.655000
     26 O4           0.4660    -0.3060     5.5430 o          1 ZK5      -0.481100
     27 O5          -2.4730     0.0410     4.9080 oh         1 ZK5      -0.634000
     28 H2C1        -2.6110     0.8270    -5.1460 hc         1 ZK5       0.069700
     29 H2C2        -1.9720    -0.8160    -4.9250 hc         1 ZK5       0.069700
     30 H4           1.6710     0.2010    -5.2120 ha         1 ZK5       0.196000
     31 H6C1         2.8870    -0.6580    -3.3710 hc         1 ZK5       0.055200
     32 H6C2         1.9620    -1.9940    -2.7200 hc         1 ZK5       0.055200
     33 H7C1         2.5340     0.6970    -1.3710 hc         1 ZK5       0.051200
     34 H7C2         3.1430    -0.8820    -0.8980 hc         1 ZK5       0.051200
     35 H1C1        -1.5940     1.4560    -2.9440 hc         1 ZK5       0.055700
     36 H1C2        -2.6790     0.1020    -2.7190 hc         1 ZK5       0.055700
     37 H8           0.8700    -1.6480    -0.2810 hc         1 ZK5       0.069700
     38 H11         -2.2430     0.7530    -0.4510 h1         1 ZK5       0.044700
     39 H121        -2.0200     0.4660     2.0420 hc         1 ZK5       0.059700
     40 H122        -0.9800     1.6580     1.3060 hc         1 ZK5       0.059700
     41 H14          1.5010     1.0980     0.8140 hc         1 ZK5       0.075700
     42 H151         2.5230    -1.6150     1.8280 hc         1 ZK5       0.048200
     43 H152         3.4600    -0.1780     1.4440 hc         1 ZK5       0.048200
     44 H161         2.3460    -0.7820     4.0030 hc         1 ZK5       0.059700
     45 H162         2.9900     0.7790     3.5650 hc         1 ZK5       0.059700
     46 H181        -0.3310    -2.2400     1.5270 hc         1 ZK5       0.046700
     47 H182         0.5110    -2.0600     3.0470 hc         1 ZK5       0.046700
     48 H183        -1.1910    -1.6480     2.9450 hc         1 ZK5       0.046700
     49 H191        -0.8320    -2.3700    -3.5990 hc         1 ZK5       0.043700
     50 H192        -0.2950    -2.5990    -1.9440 hc         1 ZK5       0.043700
     51 H193        -1.9700    -2.1560    -2.2860 hc         1 ZK5       0.043700
     52 H211        -1.3550     1.6440     5.6800 h1         1 ZK5       0.043700
     53 H212        -1.5850     1.6780     3.9340 h1         1 ZK5       0.043700
     54 H2          -2.9370    -1.1140     0.6200 ho         1 ZK5       0.448000
     55 H3           1.5600     2.4350     3.6650 ho         1 ZK5       0.449000
     56 H5          -3.3040     0.5380     5.0820 ho         1 ZK5       0.445000
@<TRIPOS>BOND
     1     1     2 1   
     2     1     7 1   
     3     1    28 1   
     4     1    29 1   
     5     2     3 1   
     6     2    23 2   
     7     3     4 2   
     8     3    30 1   
     9     4     5 1   
    10     4    10 1   
    11     5     6 1   
    12     5    31 1   
    13     5    32 1   
    14     6     8 1   
    15     6    33 1   
    16     6    34 1   
    17     7    10 1   
    18     7    35 1   
    19     7    36 1   
    20     8     9 1   
    21     8    14 1   
    22     8    37 1   
    23     9    10 1   
    24     9    11 1   
    25     9    22 1   
    26    10    19 1   
    27    11    12 1   
    28    11    24 1   
    29    11    38 1   
    30    12    13 1   
    31    12    39 1   
    32    12    40 1   
    33    13    14 1   
    34    13    17 1   
    35    13    18 1   
    36    14    15 1   
    37    14    41 1   
    38    15    16 1   
    39    15    42 1   
    40    15    43 1   
    41    16    17 1   
    42    16    44 1   
    43    16    45 1   
    44    17    20 1   
    45    17    25 1   
    46    18    46 1   
    47    18    47 1   
    48    18    48 1   
    49    19    49 1   
    50    19    50 1   
    51    19    51 1   
    52    20    21 1   
    53    20    26 2   
    54    21    27 1   
    55    21    52 1   
    56    21    53 1   
    57    24    54 1   
    58    25    55 1   
    59    27    56 1   
@<TRIPOS>SUBSTRUCTURE
     1 ZK5         1 TEMP              0 ****  ****    0 ROOT
