@<TRIPOS>MOLECULE
ZK5
   56    59     1     0     0
SMALL
abcg2


@<TRIPOS>ATOM
      1 C2          -1.7580     0.1860    -4.6080 c6         1 ZK5      -0.179400
      2 C3          -0.4820     0.6790    -5.2310 c          1 ZK5       0.576300
      3 C4           0.7440     0.3490    -4.5070 ce         1 ZK5      -0.309200
      4 C5           0.7570    -0.2320    -3.2970 c2         1 ZK5      -0.034400
      5 C6           2.0330    -0.7620    -2.7230 c6         1 ZK5      -0.049200
      6 C7           2.2500    -0.3750    -1.2660 c6         1 ZK5      -0.068400
      7 C1          -1.6970     0.2630    -3.0900 c6         1 ZK5      -0.066400
      8 C8           1.0170    -0.6120    -0.3960 c6         1 ZK5      -0.060700
      9 C9          -0.2280     0.0150    -1.0440 c6         1 ZK5       0.228000
     10 C10         -0.5020    -0.4990    -2.4930 c6         1 ZK5      -0.020800
     11 C11         -1.4690     0.0280    -0.1260 c6         1 ZK5       0.158300
     12 C12         -1.1580     0.5400     1.2880 c6         1 ZK5      -0.098400
     13 C13          0.0340    -0.1640     1.9300 c5         1 ZK5      -0.018000
     14 C14          1.2350    -0.0090     0.9870 c5         1 ZK5      -0.069700
     15 C15          2.4170    -0.4970     1.8190 c5         1 ZK5      -0.065400
     16 C16          2.0570    -0.0740     3.2620 c5         1 ZK5      -0.099400
     17 C17          0.6260     0.5090     3.2120 c5         1 ZK5       0.080000
     18 C18         -0.2710    -1.6380     2.2410 c3         1 ZK5      -0.095100
     19 C19         -0.7590    -2.0180    -2.5880 c3         1 ZK5      -0.075100
     20 C20         -0.1970     0.2160     4.4660 c          1 ZK5       0.548100
     21 C21         -1.3080     1.1920     4.7830 c3         1 ZK5       0.061600
     22 F9           0.0800     1.3830    -1.2080 f          1 ZK5      -0.269000
     23 O1          -0.4560     1.2510    -6.3080 o          1 ZK5      -0.529100
     24 O2          -2.0280    -1.2620    -0.1190 oh         1 ZK5      -0.659000
     25 O3           0.6410     1.9040     2.9990 oh         1 ZK5      -0.655000
     26 O4           0.0080    -0.7390     5.1760 o          1 ZK5      -0.481100
     27 O5          -2.0890     0.6720     5.8190 oh         1 ZK5      -0.634000
     28 H2C1        -2.6040     0.7590    -4.9900 hc         1 ZK5       0.069700
     29 H2C2        -1.9060    -0.8480    -4.9390 hc         1 ZK5       0.069700
     30 H4           1.6800     0.5210    -5.0290 ha         1 ZK5       0.196000
     31 H6C1         2.8800    -0.4440    -3.3310 hc         1 ZK5       0.055200
     32 H6C2         1.9940    -1.8550    -2.7980 hc         1 ZK5       0.055200
     33 H7C1         2.5440     0.6750    -1.2060 hc         1 ZK5       0.051200
     34 H7C2         3.0890    -0.9490    -0.8680 hc         1 ZK5       0.051200
     35 H1C1        -1.6490     1.3160    -2.8080 hc         1 ZK5       0.055700
     36 H1C2        -2.6270    -0.1300    -2.6740 hc         1 ZK5       0.055700
     37 H8           0.8510    -1.6900    -0.3060 hc         1 ZK5       0.069700
     38 H11         -2.1800     0.7390    -0.5680 h1         1 ZK5       0.044700
     39 H121        -2.0690     0.4330     1.8880 hc         1 ZK5       0.059700
     40 H122        -0.9670     1.6120     1.2250 hc         1 ZK5       0.059700
     41 H14          1.3820     1.0650     0.8340 hc         1 ZK5       0.075700
     42 H151         2.5290    -1.5820     1.7480 hc         1 ZK5       0.048200
     43 H152         3.3600    -0.0600     1.4920 hc         1 ZK5       0.048200
     44 H161         2.1080    -0.9220     3.9420 hc         1 ZK5       0.059700
     45 H162         2.7490     0.6740     3.6550 hc         1 ZK5       0.059700
     46 H181        -0.3170    -2.2400     1.3390 hc         1 ZK5       0.046700
     47 H182         0.4750    -2.0920     2.8920 hc         1 ZK5       0.046700
     48 H183        -1.2370    -1.7410     2.7390 hc         1 ZK5       0.046700
     49 H191        -0.6730    -2.3400    -3.6270 hc         1 ZK5       0.043700
     50 H192        -0.0450    -2.6070    -2.0150 hc         1 ZK5       0.043700
     51 H193        -1.7540    -2.2710    -2.2390 hc         1 ZK5       0.043700
     52 H211        -0.8480     2.1540     5.0470 h1         1 ZK5       0.043700
     53 H212        -1.8870     1.3810     3.8680 h1         1 ZK5       0.043700
     54 H2          -2.7480    -1.2730     0.5200 ho         1 ZK5       0.448000
     55 H3           1.2910     2.3020     3.5880 ho         1 ZK5       0.449000
     56 H5          -2.7560     1.3290     6.0370 ho         1 ZK5       0.445000
@<TRIPOS>BOND
     1     1     2 1   
     2     1     7 1   
     3     1    28 1   
     4     1    29 1   
     5     2     3 1   
     6     2    23 2   
     7     3     4 2   
     8     3    30 1   
     9     4     5 1   
    10     4    10 1   
    11     5     6 1   
    12     5    31 1   
    13     5    32 1   
    14     6     8 1   
    15     6    33 1   
    16     6    34 1   
    17     7    10 1   
    18     7    35 1   
    19     7    36 1   
    20     8     9 1   
    21     8    14 1   
    22     8    37 1   
    23     9    10 1   
    24     9    11 1   
    25     9    22 1   
    26    10    19 1   
    27    11    12 1   
    28    11    24 1   
    29    11    38 1   
    30    12    13 1   
    31    12    39 1   
    32    12    40 1   
    33    13    14 1   
    34    13    17 1   
    35    13    18 1   
    36    14    15 1   
    37    14    41 1   
    38    15    16 1   
    39    15    42 1   
    40    15    43 1   
    41    16    17 1   
    42    16    44 1   
    43    16    45 1   
    44    17    20 1   
    45    17    25 1   
    46    18    46 1   
    47    18    47 1   
    48    18    48 1   
    49    19    49 1   
    50    19    50 1   
    51    19    51 1   
    52    20    21 1   
    53    20    26 2   
    54    21    27 1   
    55    21    52 1   
    56    21    53 1   
    57    24    54 1   
    58    25    55 1   
    59    27    56 1   
@<TRIPOS>SUBSTRUCTURE
     1 ZK5         1 TEMP              0 ****  ****    0 ROOT
