@<TRIPOS>MOLECULE
ZK6
   39    41     1     0     0
SMALL
abcg2


@<TRIPOS>ATOM
      1 N1         -16.4860    17.8180    26.6000 ns         1 ZK6      -0.166000
      2 N3         -19.3660    13.8000    25.9830 n          1 ZK6      -0.407800
      3 C4         -14.2090    20.6760    26.1830 ca         1 ZK6      -0.083000
      4 C5         -13.2050    20.4000    27.1080 ca         1 ZK6      -0.138000
      5 C6         -13.3010    19.2490    27.8840 ca         1 ZK6      -0.083000
      6 C7         -14.3770    18.3790    27.7500 ca         1 ZK6      -0.148500
      7 C8         -18.3960    16.0100    25.5510 c6         1 ZK6       0.093000
      8 C10        -18.8900    13.8340    27.3650 c6         1 ZK6       0.085000
      9 C13        -21.3020    12.3470    26.3780 cc         1 ZK6       0.061500
     10 C15        -22.8850    11.0740    27.3200 cd         1 ZK6      -0.195000
     11 C1         -17.0150    16.8880    27.4710 c          1 ZK6       0.669100
     12 C11        -18.8040    15.2730    27.8500 c6         1 ZK6       0.093000
     13 C12        -20.3270    12.9910    25.4740 c          1 ZK6       0.543600
     14 C14        -22.0390    11.2170    26.1820 cd         1 ZK6      -0.102000
     15 C16        -22.6170    12.1350    28.1270 cc         1 ZK6       0.146900
     16 C2         -15.3900    18.6630    26.8280 ca         1 ZK6      -0.007000
     17 C3         -15.2920    19.8190    26.0450 ca         1 ZK6      -0.148500
     18 C9         -18.5110    14.5600    25.0810 c6         1 ZK6       0.085000
     19 N2         -17.9800    16.0700    26.9480 n          1 ZK6      -0.440800
     20 O1         -16.6450    16.7970    28.6420 o          1 ZK6      -0.624100
     21 O2         -20.4380    12.7790    24.2600 o          1 ZK6      -0.596100
     22 O3         -21.6570    12.9200    27.5730 os         1 ZK6      -0.249000
     23 H1         -17.0290    18.0470    25.7830 hn         1 ZK6       0.148000
     24 H3         -14.1530    21.5640    25.5670 ha         1 ZK6       0.113000
     25 H4         -12.3620    21.0690    27.2200 ha         1 ZK6       0.115000
     26 H5         -12.5250    19.0150    28.6020 ha         1 ZK6       0.113000
     27 H6         -14.4370    17.4890    28.3540 ha         1 ZK6       0.124000
     28 H7         -19.3620    16.5120    25.4280 h1         1 ZK6       0.061200
     29 H8         -17.6680    16.5000    24.9100 h1         1 ZK6       0.061200
     30 H11        -19.5420    13.2620    28.0120 h1         1 ZK6       0.067450
     31 H12        -17.8930    13.3830    27.3900 h1         1 ZK6       0.067450
     32 H16        -23.5990    10.2900    27.5100 ha         1 ZK6       0.148000
     33 H13        -19.8120    15.7010    27.8940 h1         1 ZK6       0.061200
     34 H14        -18.3640    15.3070    28.8410 h1         1 ZK6       0.061200
     35 H15        -21.9790    10.5670    25.3250 ha         1 ZK6       0.157000
     36 H17        -23.0070    12.4640    29.0750 h4         1 ZK6       0.056100
     37 H2         -16.0710    20.0410    25.3250 ha         1 ZK6       0.124000
     38 H9         -18.9340    14.5280    24.0820 h1         1 ZK6       0.067450
     39 H10        -17.5160    14.1040    25.0550 h1         1 ZK6       0.067450
@<TRIPOS>BOND
     1     1    11 1   
     2     1    16 1   
     3     1    23 1   
     4     2     8 1   
     5     2    13 1   
     6     2    18 1   
     7     3     4 ar  
     8     3    17 ar  
     9     3    24 1   
    10     4     5 ar  
    11     4    25 1   
    12     5     6 ar  
    13     5    26 1   
    14     6    16 ar  
    15     6    27 1   
    16     7    18 1   
    17     7    19 1   
    18     7    28 1   
    19     7    29 1   
    20     8    12 1   
    21     8    30 1   
    22     8    31 1   
    23     9    13 1   
    24     9    14 2   
    25     9    22 1   
    26    10    14 1   
    27    10    15 2   
    28    10    32 1   
    29    11    19 1   
    30    11    20 2   
    31    12    19 1   
    32    12    33 1   
    33    12    34 1   
    34    13    21 2   
    35    14    35 1   
    36    15    22 1   
    37    15    36 1   
    38    16    17 ar  
    39    17    37 1   
    40    18    38 1   
    41    18    39 1   
@<TRIPOS>SUBSTRUCTURE
     1 ZK6         1 TEMP              0 ****  ****    0 ROOT
