@<TRIPOS>MOLECULE
ZK6
   39    41     1     0     0
SMALL
No Charge or Current Charge


@<TRIPOS>ATOM
      1 N1         -16.1050    17.5980    26.6980 ns         1 ZK6      -0.166000
      2 N3         -19.5980    13.8610    25.9570 n          1 ZK6      -0.407800
      3 C4         -14.0580    20.5830    25.8380 ca         1 ZK6      -0.083000
      4 C5         -13.5070    20.9370    27.0800 ca         1 ZK6      -0.138000
      5 C6         -13.8140    20.1800    28.2220 ca         1 ZK6      -0.083000
      6 C7         -14.6710    19.0700    28.1250 ca         1 ZK6      -0.148500
      7 C8         -18.0720    15.8800    25.6440 c6         1 ZK6       0.093000
      8 C10        -18.8270    13.5040    27.1800 c6         1 ZK6       0.085000
      9 C13        -21.5900    12.4140    26.4210 cc         1 ZK6       0.061500
     10 C15        -23.3130    11.2650    27.2690 cd         1 ZK6      -0.195000
     11 C1         -16.5650    16.6090    27.5610 c          1 ZK6       0.669100
     12 C11        -18.1930    14.7240    27.8860 c6         1 ZK6       0.093000
     13 C12        -20.6250    13.0210    25.4460 c          1 ZK6       0.543600
     14 C14        -22.5850    11.5300    26.0900 cd         1 ZK6      -0.102000
     15 C16        -22.7500    12.0070    28.2700 cc         1 ZK6       0.146900
     16 C2         -15.2290    18.7030    26.8790 ca         1 ZK6      -0.007000
     17 C3         -14.9140    19.4730    25.7410 ca         1 ZK6      -0.148500
     18 C9         -18.7590    14.6420    25.0120 c6         1 ZK6       0.085000
     19 N2         -17.4610    15.6700    26.9940 n          1 ZK6      -0.440800
     20 O1         -16.2320    16.5260    28.7360 o          1 ZK6      -0.624100
     21 O2         -20.7310    12.8400    24.2370 o          1 ZK6      -0.596100
     22 O3         -21.6940    12.7330    27.7640 os         1 ZK6      -0.249000
     23 H1         -16.4630    17.5190    25.7570 hn         1 ZK6       0.148000
     24 H3         -13.8220    21.1680    24.9520 ha         1 ZK6       0.113000
     25 H4         -12.8440    21.7960    27.1570 ha         1 ZK6       0.115000
     26 H5         -13.3890    20.4550    29.1850 ha         1 ZK6       0.113000
     27 H6         -14.8900    18.5130    29.0290 ha         1 ZK6       0.124000
     28 H7         -18.8230    16.6780    25.7340 h1         1 ZK6       0.061200
     29 H8         -17.3120    16.2300    24.9320 h1         1 ZK6       0.061200
     30 H11        -19.4180    12.9450    27.9100 h1         1 ZK6       0.067450
     31 H12        -18.0130    12.8300    26.8770 h1         1 ZK6       0.067450
     32 H16        -24.1680    10.6040    27.3690 ha         1 ZK6       0.148000
     33 H13        -18.9910    15.2830    28.3950 h1         1 ZK6       0.061200
     34 H14        -17.5150    14.3510    28.6670 h1         1 ZK6       0.061200
     35 H15        -22.7740    11.1190    25.1030 ha         1 ZK6       0.157000
     36 H17        -22.9870    12.1150    29.3200 h4         1 ZK6       0.056100
     37 H2         -15.3350    19.2100    24.7730 ha         1 ZK6       0.124000
     38 H9         -19.3660    14.9800    24.1600 h1         1 ZK6       0.067450
     39 H10        -17.9820    13.9770    24.6090 h1         1 ZK6       0.067450
@<TRIPOS>BOND
     1     1    11 1   
     2     1    16 1   
     3     1    23 1   
     4     2     8 1   
     5     2    13 1   
     6     2    18 1   
     7     3     4 ar  
     8     3    17 ar  
     9     3    24 1   
    10     4     5 ar  
    11     4    25 1   
    12     5     6 ar  
    13     5    26 1   
    14     6    16 ar  
    15     6    27 1   
    16     7    18 1   
    17     7    19 1   
    18     7    28 1   
    19     7    29 1   
    20     8    12 1   
    21     8    30 1   
    22     8    31 1   
    23     9    13 1   
    24     9    14 2   
    25     9    22 1   
    26    10    14 1   
    27    10    15 2   
    28    10    32 1   
    29    11    19 1   
    30    11    20 2   
    31    12    19 1   
    32    12    33 1   
    33    12    34 1   
    34    13    21 2   
    35    14    35 1   
    36    15    22 1   
    37    15    36 1   
    38    16    17 ar  
    39    17    37 1   
    40    18    38 1   
    41    18    39 1   
@<TRIPOS>SUBSTRUCTURE
     1 ZK6         1 TEMP              0 ****  ****    0 ROOT
