@<TRIPOS>MOLECULE
ZK7
  104   110     1     0     0
SMALL
bcc


@<TRIPOS>ATOM
      1 C10         15.3530    20.0340    30.6070 c          1 ZK7       0.678100
      2 C17         20.4750    21.1370    31.3040 cy         1 ZK7       0.100800
      3 C21         15.2950    19.6480    35.7780 ca         1 ZK7       0.554300
      4 C24         15.5280    18.5860    38.2060 ca         1 ZK7       0.231300
      5 C26         16.5860    19.2890    36.3030 ca         1 ZK7       0.320300
      6 C28         13.1810    18.1800    39.6770 ca         1 ZK7       0.165100
      7 C01         14.0130    18.8430    32.2180 c5         1 ZK7       0.032700
      8 C02         13.2850    19.2780    33.4940 c5         1 ZK7      -0.112400
      9 C03         14.0540    20.5110    33.9460 c5         1 ZK7       0.144100
     10 C04         14.3890    21.1920    32.6320 c5         1 ZK7       0.109000
     11 C06         13.0240    18.3260    31.1850 c          1 ZK7       0.655100
     12 C09         12.1900    16.4410    29.9610 cx         1 ZK7      -0.066600
     13 C11         15.8450    21.3510    29.9990 c3         1 ZK7       0.069700
     14 C18         15.1410    21.5640    28.6570 c3         1 ZK7      -0.089400
     15 C19         13.6540    21.8770    28.8010 c3         1 ZK7      -0.081400
     16 C23         14.2750    18.9520    37.6780 ca         1 ZK7       0.372300
     17 C27         13.1000    18.7470    38.4230 ca         1 ZK7      -0.288300
     18 C29         14.4410    17.8130    40.2120 ca         1 ZK7      -0.158000
     19 C30         15.5840    18.0130    39.4920 ca         1 ZK7      -0.111300
     20 C32         10.8390    18.2770    40.0080 c3         1 ZK7       0.122700
     21 C33         17.8210    19.5070    35.4930 c3         1 ZK7      -0.138400
     22 C34         10.7180    16.3430    30.2000 c          1 ZK7       0.743100
     23 C40          8.8570    17.3620    33.5420 cx         1 ZK7      -0.291200
     24 C41          9.4960    16.5670    34.6460 cx         1 ZK7      -0.078400
     25 C42          8.0200    16.7670    34.6360 cx         1 ZK7      -0.078400
     26 C43          9.0430    18.8550    33.4460 c3         1 ZK7      -0.041100
     27 C44         12.7130    16.7360    28.5510 cx         1 ZK7      -0.032500
     28 C45         11.8690    17.0820    27.3910 c2         1 ZK7      -0.141200
     29 C46         11.9750    18.2160    26.6940 c2         1 ZK7      -0.138200
     30 C47         12.8680    19.3870    26.9650 c3         1 ZK7      -0.047200
     31 C48         12.0620    20.6720    27.1680 c3         1 ZK7      -0.073400
     32 C49         12.8120    15.3650    29.1150 cx         1 ZK7      -0.096400
     33 C50         12.9020    21.9150    27.4600 c3         1 ZK7      -0.066400
     34 C51         21.6750    21.3360    30.3880 c3         1 ZK7       0.679900
     35 C52         20.6110    19.8890    32.2010 cy         1 ZK7      -0.101900
     36 C53         20.9480    20.8130    33.3890 cy         1 ZK7      -0.081400
     37 C54         20.5440    22.0440    32.5520 cy         1 ZK7      -0.101900
     38 F55         21.6380    22.5270    29.7830 f          1 ZK7      -0.228967
     39 F56         21.7320    20.4030    29.4320 f          1 ZK7      -0.228967
     40 F57         22.8250    21.2740    31.0670 f          1 ZK7      -0.228967
     41 N05         14.6270    20.0690    31.7360 n          1 ZK7      -0.454800
     42 N08         12.9720    16.9850    31.0200 ns         1 ZK7      -0.545900
     43 N13         17.2730    21.2860    29.7810 ns         1 ZK7      -0.554900
     44 N22         14.1940    19.4970    36.4370 nb         1 ZK7      -0.759000
     45 N25         16.6670    18.7740    37.4920 nb         1 ZK7      -0.613000
     46 N35         10.3220    16.7040    31.4620 ns         1 ZK7      -0.632300
     47 O07         12.2790    19.0800    30.5890 o          1 ZK7      -0.570100
     48 O12         15.5690    18.9780    30.0280 o          1 ZK7      -0.608100
     49 O15         19.3940    21.2410    30.3980 os         1 ZK7      -0.421900
     50 O16         17.7730    21.0030    31.9650 o          1 ZK7      -0.592000
     51 O20         15.3000    20.1580    34.5500 os         1 ZK7      -0.419100
     52 O31         12.1300    17.9320    40.4700 os         1 ZK7      -0.310900
     53 O36          9.9300    15.9630    29.3630 o          1 ZK7      -0.545100
     54 O38          8.4070    15.1490    32.1430 o          1 ZK7      -0.583800
     55 O39          7.8840    17.3560    31.0940 o          1 ZK7      -0.583800
     56 S37          8.7190    16.5580    31.9730 s6         1 ZK7       1.280600
     57 H011        14.7770    18.0900    32.4340 h1         1 ZK7       0.080700
     58 H022        12.2630    19.5880    33.2700 hc         1 ZK7       0.075700
     59 H021        13.2320    18.4850    34.2350 hc         1 ZK7       0.075700
     60 H031        13.4780    21.1530    34.6140 h1         1 ZK7       0.085700
     61 H042        15.2580    21.8400    32.7150 h1         1 ZK7       0.073200
     62 H041        13.5350    21.7920    32.3060 h1         1 ZK7       0.073200
     63 H111        15.6170    22.2000    30.6480 h1         1 ZK7       0.063700
     64 H181        15.2930    20.6830    28.0290 hc         1 ZK7       0.058200
     65 H182        15.6270    22.3990    28.1440 hc         1 ZK7       0.058200
     66 H191        13.5590    22.8420    29.3050 hc         1 ZK7       0.050700
     67 H192        13.1720    21.1510    29.4610 hc         1 ZK7       0.050700
     68 H271        12.1590    19.0400    37.9760 ha         1 ZK7       0.150000
     69 H291        14.4810    17.3710    41.1990 ha         1 ZK7       0.153000
     70 H301        16.5470    17.7320    39.8980 ha         1 ZK7       0.154000
     71 H322        10.1440    18.0010    40.7970 h1         1 ZK7       0.044700
     72 H323        10.7490    19.3490    39.8170 h1         1 ZK7       0.044700
     73 H321        10.5740    17.7330    39.0970 h1         1 ZK7       0.044700
     74 H331        18.6930    19.1690    36.0490 hc         1 ZK7       0.060700
     75 H332        17.7800    18.9630    34.5480 hc         1 ZK7       0.060700
     76 H333        17.9550    20.5620    35.2480 hc         1 ZK7       0.060700
     77 H411         9.8750    15.5750    34.4320 hc         1 ZK7       0.088450
     78 H412        10.1000    17.1370    35.3400 hc         1 ZK7       0.088450
     79 H421         7.5820    17.4810    35.3220 hc         1 ZK7       0.088450
     80 H422         7.3920    15.9120    34.4210 hc         1 ZK7       0.088450
     81 H433         9.1470    19.2630    34.4510 hc         1 ZK7       0.052700
     82 H431         9.9410    19.1220    32.8890 hc         1 ZK7       0.052700
     83 H432         8.1850    19.3340    32.9770 hc         1 ZK7       0.052700
     84 H441        13.6340    17.3030    28.6130 hc         1 ZK7       0.098700
     85 H451        11.1480    16.3430    27.0650 ha         1 ZK7       0.140000
     86 H461        11.3220    18.3280    25.8320 ha         1 ZK7       0.118000
     87 H471        13.5030    19.2080    27.8350 hc         1 ZK7       0.046700
     88 H472        13.5440    19.5320    26.1150 hc         1 ZK7       0.046700
     89 H482        11.4590    20.8540    26.2740 hc         1 ZK7       0.047700
     90 H481        11.3510    20.5210    27.9870 hc         1 ZK7       0.047700
     91 H491        12.1410    14.6050    28.7330 hc         1 ZK7       0.087700
     92 H492        13.7830    14.9970    29.4230 hc         1 ZK7       0.087700
     93 H501        13.6070    22.0800    26.6390 hc         1 ZK7       0.037200
     94 H502        12.2320    22.7770    27.4510 hc         1 ZK7       0.037200
     95 H522        19.6660    19.3670    32.3280 hc         1 ZK7       0.077950
     96 H521        21.3630    19.1570    31.9080 hc         1 ZK7       0.077950
     97 H531        22.0010    20.8010    33.6620 hc         1 ZK7       0.061700
     98 H532        20.3580    20.6470    34.2870 hc         1 ZK7       0.061700
     99 H542        21.2520    22.8720    32.5120 hc         1 ZK7       0.077950
    100 H541        19.5760    22.4490    32.8320 hc         1 ZK7       0.077950
    101 H081        13.6440    16.3930    31.4860 hn         1 ZK7       0.325500
    102 H131        17.6320    21.4200    28.8480 hn         1 ZK7       0.344500
    103 H351        11.0200    16.8140    32.1900 hn         1 ZK7       0.336500
    104 C14         18.1200    21.1640    30.8140 c          1 ZK7       0.769100
@<TRIPOS>BOND
     1     1    13 1   
     2     1    41 1   
     3     1    48 2   
     4     2    34 1   
     5     2    35 1   
     6     2    37 1   
     7     2    49 1   
     8     3     5 ar  
     9     3    44 ar  
    10     3    51 1   
    11     4    16 ar  
    12     4    19 ar  
    13     4    45 ar  
    14     5    21 1   
    15     5    45 ar  
    16     6    17 ar  
    17     6    18 ar  
    18     6    52 1   
    19     7     8 1   
    20     7    11 1   
    21     7    41 1   
    22     7    57 1   
    23     8     9 1   
    24     8    58 1   
    25     8    59 1   
    26     9    10 1   
    27     9    51 1   
    28     9    60 1   
    29    10    41 1   
    30    10    61 1   
    31    10    62 1   
    32    11    42 1   
    33    11    47 2   
    34    12    22 1   
    35    12    27 1   
    36    12    32 1   
    37    12    42 1   
    38    13    14 1   
    39    13    43 1   
    40    13    63 1   
    41    14    15 1   
    42    14    64 1   
    43    14    65 1   
    44    15    33 1   
    45    15    66 1   
    46    15    67 1   
    47    16    17 ar  
    48    16    44 ar  
    49    17    68 1   
    50    18    19 ar  
    51    18    69 1   
    52    19    70 1   
    53    20    52 1   
    54    20    71 1   
    55    20    72 1   
    56    20    73 1   
    57    21    74 1   
    58    21    75 1   
    59    21    76 1   
    60    22    46 1   
    61    22    53 2   
    62    23    24 1   
    63    23    25 1   
    64    23    26 1   
    65    23    56 1   
    66    24    25 1   
    67    24    77 1   
    68    24    78 1   
    69    25    79 1   
    70    25    80 1   
    71    26    81 1   
    72    26    82 1   
    73    26    83 1   
    74    27    28 1   
    75    27    32 1   
    76    27    84 1   
    77    28    29 2   
    78    28    85 1   
    79    29    30 1   
    80    29    86 1   
    81    30    31 1   
    82    30    87 1   
    83    30    88 1   
    84    31    33 1   
    85    31    89 1   
    86    31    90 1   
    87    32    91 1   
    88    32    92 1   
    89    33    93 1   
    90    33    94 1   
    91    34    38 1   
    92    34    39 1   
    93    34    40 1   
    94    35    36 1   
    95    35    95 1   
    96    35    96 1   
    97    36    37 1   
    98    36    97 1   
    99    36    98 1   
   100    37    99 1   
   101    37   100 1   
   102    42   101 1   
   103    43   102 1   
   104    43   104 1   
   105    46    56 1   
   106    46   103 1   
   107    49   104 1   
   108    50   104 2   
   109    54    56 2   
   110    55    56 2   
@<TRIPOS>SUBSTRUCTURE
     1 ZK7         1 TEMP              0 ****  ****    0 ROOT
