@<TRIPOS>MOLECULE
ZK7
  104   110     1     0     0
SMALL
No Charge or Current Charge


@<TRIPOS>ATOM
      1 C10         15.7110    19.8130    31.2980 c          1 ZK7       0.611100
      2 C17         21.1390    22.0640    29.9030 cy         1 ZK7       0.124000
      3 C21         14.7170    18.5790    36.3230 ca         1 ZK7       0.554300
      4 C24         13.9600    17.1110    38.4960 ca         1 ZK7       0.166000
      5 C26         15.1930    17.2450    36.5470 ca         1 ZK7       0.320300
      6 C28         12.1910    18.3210    40.3520 ca         1 ZK7       0.165100
      7 C01         13.8880    18.7130    32.6630 c5         1 ZK7       0.032700
      8 C02         13.1030    19.2430    33.9050 c5         1 ZK7      -0.112400
      9 C03         14.1570    20.1320    34.6280 c5         1 ZK7       0.167300
     10 C04         14.8200    20.8770    33.4340 c5         1 ZK7       0.109000
     11 C06         12.8770    18.4220    31.5120 c          1 ZK7       0.588100
     12 C09         12.3020    16.6230    29.8940 cx         1 ZK7      -0.066600
     13 C11         16.3400    21.1420    30.7730 c3         1 ZK7       0.069700
     14 C18         15.6110    21.6420    29.4970 c3         1 ZK7      -0.089400
     15 C19         14.1150    22.0070    29.6910 c3         1 ZK7      -0.081400
     16 C23         13.4960    18.4550    38.2880 ca         1 ZK7       0.307000
     17 C27         12.6200    19.0390    39.2180 ca         1 ZK7      -0.205000
     18 C29         12.6430    17.0110    40.5530 ca         1 ZK7      -0.140000
     19 C30         13.5200    16.4120    39.6340 ca         1 ZK7      -0.028000
     20 C32         10.8090    20.1930    41.1800 c3         1 ZK7       0.145900
     21 C33         16.1490    16.5610    35.5780 c3         1 ZK7      -0.138400
     22 C34         10.7650    16.7350    29.8380 c          1 ZK7       0.676100
     23 C40          8.6090    16.5700    33.2850 cx         1 ZK7      -0.402000
     24 C41          8.8040    15.2630    34.0330 cx         1 ZK7      -0.078400
     25 C42          7.4550    15.9500    34.0530 cx         1 ZK7      -0.078400
     26 C43          9.2690    17.8510    33.8110 c3         1 ZK7      -0.041100
     27 C44         13.1750    16.7850    28.6570 cx         1 ZK7      -0.032500
     28 C45         12.6160    17.2860    27.3670 c2         1 ZK7      -0.191200
     29 C46         12.7520    18.5380    26.8880 c2         1 ZK7      -0.188200
     30 C47         13.5060    19.6930    27.5340 c3         1 ZK7      -0.047200
     31 C48         12.5980    20.9030    27.8470 c3         1 ZK7      -0.073400
     32 C49         12.8780    15.4070    29.1950 cx         1 ZK7      -0.096400
     33 C50         13.3240    22.1770    28.3670 c3         1 ZK7      -0.066400
     34 C51         22.2420    21.0130    29.5240 c3         1 ZK7       0.316000
     35 C52         21.5080    23.0590    31.0750 cy         1 ZK7      -0.101900
     36 C53         21.9690    24.0900    29.9890 cy         1 ZK7      -0.081400
     37 C54         21.0490    23.3360    28.9700 cy         1 ZK7      -0.101900
     38 F55         21.8970    20.3760    28.3800 f          1 ZK7      -0.107667
     39 F56         22.3600    20.0930    30.5100 f          1 ZK7      -0.107667
     40 F57         23.4510    21.5930    29.3390 f          1 ZK7      -0.107667
     41 N05         14.7750    19.8640    32.3530 n          1 ZK7      -0.387800
     42 N08         12.9570    17.1040    31.1030 ns         1 ZK7      -0.478900
     43 N13         17.7690    20.9230    30.4770 ns         1 ZK7      -0.487900
     44 N22         13.8800    19.1860    37.2100 nb         1 ZK7      -0.759000
     45 N25         14.8120    16.5070    37.6260 nb         1 ZK7      -0.613000
     46 N35         10.1800    16.4470    31.0250 ns         1 ZK7      -0.565300
     47 O07         12.0930    19.2190    31.0160 o          1 ZK7      -0.570100
     48 O12         15.9620    18.7410    30.7560 o          1 ZK7      -0.608100
     49 O15         19.9060    21.3060    30.0720 os         1 ZK7      -0.445100
     50 O16         18.4960    23.0840    30.6160 o          1 ZK7      -0.543000
     51 O20         15.1860    19.2760    35.2160 os         1 ZK7      -0.442300
     52 O31         11.3320    18.8570    41.2900 os         1 ZK7      -0.334100
     53 O36         10.1210    17.0200    28.8390 o          1 ZK7      -0.545100
     54 O38          7.9370    15.2890    30.9820 o          1 ZK7      -0.513000
     55 O39          8.0450    17.8290    30.9340 o          1 ZK7      -0.513000
     56 S37          8.5670    16.5430    31.4100 s6         1 ZK7       1.249800
     57 H011        14.4760    17.8170    32.9010 h1         1 ZK7       0.080700
     58 H022        12.2470    19.8620    33.6090 hc         1 ZK7       0.075700
     59 H021        12.7020    18.4360    34.5270 hc         1 ZK7       0.075700
     60 H031        13.7410    20.8320    35.3650 h1         1 ZK7       0.085700
     61 H042        15.8440    21.1890    33.6780 h1         1 ZK7       0.073200
     62 H041        14.2430    21.7690    33.1540 h1         1 ZK7       0.073200
     63 H111        16.2630    21.9110    31.5510 h1         1 ZK7       0.063700
     64 H181        15.7140    20.8760    28.7220 hc         1 ZK7       0.058200
     65 H182        16.1290    22.5290    29.1110 hc         1 ZK7       0.058200
     66 H191        14.0670    22.9470    30.2550 hc         1 ZK7       0.050700
     67 H192        13.6090    21.2590    30.3090 hc         1 ZK7       0.050700
     68 H271        12.2850    20.0550    39.0380 ha         1 ZK7       0.132000
     69 H291        12.3130    16.4560    41.4280 ha         1 ZK7       0.135000
     70 H301        13.8640    15.3950    39.8050 ha         1 ZK7       0.136000
     71 H322        10.1510    20.4150    42.0280 h1         1 ZK7       0.044700
     72 H323        11.6220    20.9310    41.1790 h1         1 ZK7       0.044700
     73 H321        10.2260    20.3100    40.2570 h1         1 ZK7       0.044700
     74 H331        16.4920    15.5910    35.9580 hc         1 ZK7       0.060700
     75 H332        15.6630    16.3880    34.6120 hc         1 ZK7       0.060700
     76 H333        17.0360    17.1810    35.4020 hc         1 ZK7       0.060700
     77 H411         8.8880    14.3400    33.4610 hc         1 ZK7       0.088450
     78 H412         9.3880    15.2750    34.9510 hc         1 ZK7       0.088450
     79 H421         7.1440    16.4200    34.9840 hc         1 ZK7       0.088450
     80 H422         6.6450    15.4850    33.4940 hc         1 ZK7       0.088450
     81 H433         9.3110    17.8600    34.9080 hc         1 ZK7       0.052700
     82 H431        10.2970    17.9540    33.4450 hc         1 ZK7       0.052700
     83 H432         8.7110    18.7440    33.5000 hc         1 ZK7       0.052700
     84 H441        14.1960    17.1220    28.8260 hc         1 ZK7       0.098700
     85 H451        12.0510    16.5520    26.7890 ha         1 ZK7       0.190000
     86 H461        12.2970    18.7950    25.9290 ha         1 ZK7       0.168000
     87 H471        13.9850    19.3690    28.4640 hc         1 ZK7       0.046700
     88 H472        14.3120    20.0160    26.8640 hc         1 ZK7       0.046700
     89 H482        12.0490    21.1740    26.9360 hc         1 ZK7       0.047700
     90 H481        11.8420    20.5970    28.5800 hc         1 ZK7       0.047700
     91 H491        12.2010    14.7760    28.6240 hc         1 ZK7       0.087700
     92 H492        13.6860    14.8700    29.6860 hc         1 ZK7       0.087700
     93 H501        13.9880    22.5680    27.5860 hc         1 ZK7       0.037200
     94 H502        12.5590    22.9480    28.5260 hc         1 ZK7       0.037200
     95 H522        20.6800    23.4120    31.6950 hc         1 ZK7       0.077950
     96 H521        22.2950    22.7130    31.7530 hc         1 ZK7       0.077950
     97 H531        23.0390    24.0580    29.7520 hc         1 ZK7       0.061700
     98 H532        21.6980    25.1330    30.1860 hc         1 ZK7       0.061700
     99 H542        21.4690    23.2130    27.9660 hc         1 ZK7       0.077950
    100 H541        20.0600    23.7870    28.8530 hc         1 ZK7       0.077950
    101 H081        13.6440    16.5200    31.5670 hn         1 ZK7       0.325500
    102 H131        18.0900    19.9830    30.2780 hn         1 ZK7       0.344500
    103 H351        10.7540    16.2010    31.8110 hn         1 ZK7       0.336500
    104 C14         18.7160    21.9030    30.4060 c          1 ZK7       0.653100
@<TRIPOS>BOND
     1     1    13 1   
     2     1    41 1   
     3     1    48 2   
     4     2    34 1   
     5     2    35 1   
     6     2    37 1   
     7     2    49 1   
     8     3     5 ar  
     9     3    44 ar  
    10     3    51 1   
    11     4    16 ar  
    12     4    19 ar  
    13     4    45 ar  
    14     5    21 1   
    15     5    45 ar  
    16     6    17 ar  
    17     6    18 ar  
    18     6    52 1   
    19     7     8 1   
    20     7    11 1   
    21     7    41 1   
    22     7    57 1   
    23     8     9 1   
    24     8    58 1   
    25     8    59 1   
    26     9    10 1   
    27     9    51 1   
    28     9    60 1   
    29    10    41 1   
    30    10    61 1   
    31    10    62 1   
    32    11    42 1   
    33    11    47 2   
    34    12    22 1   
    35    12    27 1   
    36    12    32 1   
    37    12    42 1   
    38    13    14 1   
    39    13    43 1   
    40    13    63 1   
    41    14    15 1   
    42    14    64 1   
    43    14    65 1   
    44    15    33 1   
    45    15    66 1   
    46    15    67 1   
    47    16    17 ar  
    48    16    44 ar  
    49    17    68 1   
    50    18    19 ar  
    51    18    69 1   
    52    19    70 1   
    53    20    52 1   
    54    20    71 1   
    55    20    72 1   
    56    20    73 1   
    57    21    74 1   
    58    21    75 1   
    59    21    76 1   
    60    22    46 1   
    61    22    53 2   
    62    23    24 1   
    63    23    25 1   
    64    23    26 1   
    65    23    56 1   
    66    24    25 1   
    67    24    77 1   
    68    24    78 1   
    69    25    79 1   
    70    25    80 1   
    71    26    81 1   
    72    26    82 1   
    73    26    83 1   
    74    27    28 1   
    75    27    32 1   
    76    27    84 1   
    77    28    29 2   
    78    28    85 1   
    79    29    30 1   
    80    29    86 1   
    81    30    31 1   
    82    30    87 1   
    83    30    88 1   
    84    31    33 1   
    85    31    89 1   
    86    31    90 1   
    87    32    91 1   
    88    32    92 1   
    89    33    93 1   
    90    33    94 1   
    91    34    38 1   
    92    34    39 1   
    93    34    40 1   
    94    35    36 1   
    95    35    95 1   
    96    35    96 1   
    97    36    37 1   
    98    36    97 1   
    99    36    98 1   
   100    37    99 1   
   101    37   100 1   
   102    42   101 1   
   103    43   102 1   
   104    43   104 1   
   105    46    56 1   
   106    46   103 1   
   107    49   104 1   
   108    50   104 2   
   109    54    56 2   
   110    55    56 2   
@<TRIPOS>SUBSTRUCTURE
     1 ZK7         1 TEMP              0 ****  ****    0 ROOT
