@<TRIPOS>MOLECULE
ZK8
   43    44     1     0     0
SMALL
abcg2


@<TRIPOS>ATOM
      1 C10        -63.1850    -2.2590    35.0940 ca         1 ZK8       0.290900
      2 C11        -61.8390    -2.5890    35.0790 ca         1 ZK8      -0.149000
      3 C12        -61.4670    -3.8330    34.5980 ca         1 ZK8      -0.131000
      4 C13        -64.9100    -5.1890    33.8300 cp         1 ZK8       0.233000
      5 C14        -65.3970    -5.2220    32.5160 ca         1 ZK8       0.173100
      6 C15        -66.5280    -5.9970    32.2710 ca         1 ZK8      -0.157000
      7 C16        -67.0890    -6.7270    33.3040 ca         1 ZK8      -0.143000
      8 C17        -66.5020    -6.6620    34.5590 ca         1 ZK8       0.271900
      9 P01        -61.5600    -6.0850    32.1270 p5         1 ZK8       1.428400
     10 C01        -61.9510    -7.8380    31.8780 c3         1 ZK8      -0.440400
     11 C07        -62.4590    -4.7000    34.1570 ca         1 ZK8       0.175100
     12 N01        -64.1340    -3.0870    34.6780 nb         1 ZK8      -0.646000
     13 O01        -62.4310    -5.1910    31.2560 o          1 ZK8      -0.799000
     14 C02        -63.4370    -8.1810    31.8900 c3         1 ZK8      -0.043400
     15 C08        -63.7890    -4.2840    34.2180 cp         1 ZK8       0.274000
     16 N02        -65.4450    -5.9030    34.8130 nb         1 ZK8      -0.635000
     17 O02        -64.8350    -4.5240    31.5230 oh         1 ZK8      -0.631100
     18 C03        -63.6920    -9.6690    31.6780 c3         1 ZK8      -0.069400
     19 O03        -62.1610    -5.9360    33.6980 os         1 ZK8      -0.477500
     20 C04        -65.1640   -10.0580    31.7770 c3         1 ZK8      -0.071400
     21 C05        -66.0440    -9.4750    30.6780 c3         1 ZK8      -0.079400
     22 C06        -67.4990    -9.9040    30.8030 c3         1 ZK8      -0.086100
     23 H1         -63.5110    -1.2920    35.4600 h4         1 ZK8       0.000100
     24 H2         -61.0970    -1.8860    35.4350 ha         1 ZK8       0.104000
     25 H3         -60.4280    -4.1360    34.5730 ha         1 ZK8       0.139000
     26 H4         -66.9470    -6.0330    31.2730 ha         1 ZK8       0.116000
     27 H5         -67.9600    -7.3460    33.1370 ha         1 ZK8       0.100000
     28 H6         -66.9060    -7.2300    35.3890 h4         1 ZK8       0.000100
     29 H7         -61.4160    -8.4170    32.6370 hc         1 ZK8       0.056200
     30 H8         -61.5110    -8.1210    30.9170 hc         1 ZK8       0.056200
     31 H10        -63.8850    -7.8780    32.8410 hc         1 ZK8       0.047200
     32 H11        -63.9440    -7.6000    31.1170 hc         1 ZK8       0.047200
     33 H12        -63.8430    -4.7440    31.4490 ho         1 ZK8       0.573000
     34 H13        -63.2960    -9.9730    30.7030 hc         1 ZK8       0.028700
     35 H14        -63.1240   -10.2340    32.4250 hc         1 ZK8       0.028700
     36 H15        -65.5540    -9.7500    32.7540 hc         1 ZK8       0.028700
     37 H16        -65.2470   -11.1490    31.7520 hc         1 ZK8       0.028700
     38 H17        -65.6510    -9.7790    29.7030 hc         1 ZK8       0.043700
     39 H18        -65.9910    -8.3830    30.6980 hc         1 ZK8       0.043700
     40 H19        -68.1120    -9.4850    30.0040 hc         1 ZK8       0.023367
     41 H20        -67.5970   -10.9910    30.7590 hc         1 ZK8       0.023367
     42 H21        -67.9260    -9.5750    31.7530 hc         1 ZK8       0.023367
     43 O1         -60.0840    -5.8390    32.1390 o          1 ZK8      -0.799000
@<TRIPOS>BOND
     1     1     2 ar  
     2     1    12 ar  
     3     1    23 1   
     4     2     3 ar  
     5     2    24 1   
     6     3    11 ar  
     7     3    25 1   
     8     4     5 ar  
     9     4    15 1   
    10     4    16 ar  
    11     5     6 ar  
    12     5    17 1   
    13     6     7 ar  
    14     6    26 1   
    15     7     8 ar  
    16     7    27 1   
    17     8    16 ar  
    18     8    28 1   
    19     9    10 1   
    20     9    13 1   
    21     9    19 1   
    22     9    43 1   
    23    10    14 1   
    24    10    29 1   
    25    10    30 1   
    26    11    15 ar  
    27    11    19 1   
    28    12    15 ar  
    29    14    18 1   
    30    14    31 1   
    31    14    32 1   
    32    17    33 1   
    33    18    20 1   
    34    18    34 1   
    35    18    35 1   
    36    20    21 1   
    37    20    36 1   
    38    20    37 1   
    39    21    22 1   
    40    21    38 1   
    41    21    39 1   
    42    22    40 1   
    43    22    41 1   
    44    22    42 1   
@<TRIPOS>SUBSTRUCTURE
     1 ZK8         1 TEMP              0 ****  ****    0 ROOT
