@<TRIPOS>MOLECULE
ZK8
   43    44     1     0     0
SMALL
No Charge or Current Charge


@<TRIPOS>ATOM
      1 C10        -63.1550    -2.2220    35.2010 ca         1 ZK8       0.290900
      2 C11        -61.7850    -2.5400    35.1980 ca         1 ZK8      -0.149000
      3 C12        -61.3680    -3.7830    34.6920 ca         1 ZK8      -0.131000
      4 C13        -64.8260    -5.1990    33.7880 cp         1 ZK8       0.233000
      5 C14        -65.3610    -5.1270    32.4600 ca         1 ZK8       0.173100
      6 C15        -66.4580    -5.9380    32.1260 ca         1 ZK8      -0.157000
      7 C16        -66.9830    -6.7980    33.1070 ca         1 ZK8      -0.143000
      8 C17        -66.4000    -6.8210    34.3850 ca         1 ZK8       0.271900
      9 P01        -61.5810    -6.0190    32.1340 p5         1 ZK8       1.428400
     10 C01        -61.9940    -7.7890    31.8830 c3         1 ZK8      -0.440400
     11 C07        -62.3490    -4.6640    34.2080 ca         1 ZK8       0.175100
     12 N01        -64.1050    -3.0650    34.7370 nb         1 ZK8      -0.646000
     13 O01        -62.4660    -5.1600    31.2890 o          1 ZK8      -0.799000
     14 C02        -63.4970    -8.1460    31.9560 c3         1 ZK8      -0.043400
     15 C08        -63.7250    -4.2800    34.2440 cp         1 ZK8       0.274000
     16 N02        -65.3490    -6.0420    34.7250 nb         1 ZK8      -0.635000
     17 O02        -64.8420    -4.3110    31.4870 oh         1 ZK8      -0.631100
     18 C03        -63.7610    -9.6570    31.7630 c3         1 ZK8      -0.069400
     19 O03        -61.9680    -5.8760    33.6910 os         1 ZK8      -0.477500
     20 C04        -65.2500   -10.0640    31.8690 c3         1 ZK8      -0.071400
     21 C05        -66.1350    -9.5570    30.7060 c3         1 ZK8      -0.079400
     22 C06        -67.5950   -10.0380    30.8080 c3         1 ZK8      -0.086100
     23 H1         -63.5030    -1.2650    35.5860 h4         1 ZK8       0.000100
     24 H2         -61.0610    -1.8260    35.5830 ha         1 ZK8       0.104000
     25 H3         -60.3160    -4.0570    34.6730 ha         1 ZK8       0.139000
     26 H4         -66.8880    -5.9070    31.1280 ha         1 ZK8       0.116000
     27 H5         -67.8290    -7.4410    32.8830 ha         1 ZK8       0.100000
     28 H6         -66.7860    -7.4800    35.1610 h4         1 ZK8       0.000100
     29 H7         -61.4350    -8.3470    32.6410 hc         1 ZK8       0.056200
     30 H8         -61.5910    -8.0610    30.9020 hc         1 ZK8       0.056200
     31 H10        -63.8950    -7.8400    32.9300 hc         1 ZK8       0.047200
     32 H11        -64.0370    -7.5760    31.1900 hc         1 ZK8       0.047200
     33 H12        -63.8730    -4.5770    31.3540 ho         1 ZK8       0.573000
     34 H13        -63.3670    -9.9760    30.7900 hc         1 ZK8       0.028700
     35 H14        -63.1980   -10.2100    32.5250 hc         1 ZK8       0.028700
     36 H15        -65.6570    -9.7050    32.8220 hc         1 ZK8       0.028700
     37 H16        -65.3050   -11.1600    31.8980 hc         1 ZK8       0.028700
     38 H17        -65.7140    -9.8990    29.7530 hc         1 ZK8       0.043700
     39 H18        -66.1290    -8.4620    30.6830 hc         1 ZK8       0.043700
     40 H19        -68.1860    -9.6440    29.9730 hc         1 ZK8       0.023367
     41 H20        -67.6460   -11.1330    30.7770 hc         1 ZK8       0.023367
     42 H21        -68.0530    -9.6970    31.7440 hc         1 ZK8       0.023367
     43 O1         -60.1260    -5.7930    31.8900 o          1 ZK8      -0.799000
@<TRIPOS>BOND
     1     1     2 ar  
     2     1    12 ar  
     3     1    23 1   
     4     2     3 ar  
     5     2    24 1   
     6     3    11 ar  
     7     3    25 1   
     8     4     5 ar  
     9     4    15 1   
    10     4    16 ar  
    11     5     6 ar  
    12     5    17 1   
    13     6     7 ar  
    14     6    26 1   
    15     7     8 ar  
    16     7    27 1   
    17     8    16 ar  
    18     8    28 1   
    19     9    10 1   
    20     9    13 1   
    21     9    19 1   
    22     9    43 1   
    23    10    14 1   
    24    10    29 1   
    25    10    30 1   
    26    11    15 ar  
    27    11    19 1   
    28    12    15 ar  
    29    14    18 1   
    30    14    31 1   
    31    14    32 1   
    32    17    33 1   
    33    18    20 1   
    34    18    34 1   
    35    18    35 1   
    36    20    21 1   
    37    20    36 1   
    38    20    37 1   
    39    21    22 1   
    40    21    38 1   
    41    21    39 1   
    42    22    40 1   
    43    22    41 1   
    44    22    42 1   
@<TRIPOS>SUBSTRUCTURE
     1 ZK8         1 TEMP              0 ****  ****    0 ROOT
