@<TRIPOS>MOLECULE
ZK9
   48    50     1     0     0
SMALL
bcc


@<TRIPOS>ATOM
      1 C1           3.0320    -1.2190     1.7230 ca         1 ZK9      -0.083000
      2 C2           2.5270    -1.0920     0.4290 ca         1 ZK9      -0.257900
      3 C3           2.0350     0.1280    -0.0230 ca         1 ZK9      -0.087000
      4 C4           2.0510     1.2140     0.8350 ca         1 ZK9       0.138100
      5 C5           2.5480     1.1020     2.1220 ca         1 ZK9      -0.045000
      6 C6           3.0460    -0.1170     2.5590 ca         1 ZK9      -0.097000
      7 O7           1.6210     2.4500     0.4200 os         1 ZK9      -0.333400
      8 C8           0.3170     2.6190     0.1200 ca         1 ZK9       0.616600
      9 N9          -0.5120     1.6120     0.2180 nb         1 ZK9      -0.812000
     10 C10         -1.7790     1.7760    -0.0720 ca         1 ZK9       0.612600
     11 C11         -0.1030     3.8780    -0.2790 ca         1 ZK9       0.030600
     12 C12         -1.4360     4.0980    -0.5870 ca         1 ZK9      -0.045300
     13 C13         -2.2800     3.0050    -0.4690 ca         1 ZK9       0.024600
     14 O14         -2.6240     0.7320     0.0180 os         1 ZK9      -0.337400
     15 C15         -2.0670    -0.5150     0.2120 ca         1 ZK9       0.146100
     16 C16         -1.9840    -1.0320     1.4920 ca         1 ZK9      -0.054000
     17 C17         -1.4720    -2.3090     1.6710 ca         1 ZK9      -0.102000
     18 C18         -1.0500    -3.0540     0.5810 ca         1 ZK9      -0.120000
     19 C19         -1.1330    -2.5230    -0.7010 ca         1 ZK9      -0.206300
     20 C20         -1.6400    -1.2410    -0.8860 ca         1 ZK9      -0.111000
     21 C21         -0.7220    -3.3400    -1.8880 c3         1 ZK9       0.200100
     22 N22         -1.9050    -4.0020    -2.5080 nz         1 ZK9      -0.839600
     23 C23          2.5450    -2.2520    -0.4750 ce         1 ZK9       0.527400
     24 N24          2.3430    -3.4520     0.0150 nv         1 ZK9      -0.480600
     25 N25          2.7590    -2.0690    -1.7550 nv         1 ZK9      -0.464700
     26 F26          0.7850     4.8740    -0.3610 f          1 ZK9      -0.089900
     27 C27         -1.9500     5.4380    -1.0100 c3         1 ZK9      -0.059800
     28 F28         -3.5820     3.1320    -0.7450 f          1 ZK9      -0.093900
     29 H29          3.4460    -2.1560     2.0700 ha         1 ZK9       0.150000
     30 H30          1.6260     0.2310    -1.0190 ha         1 ZK9       0.148000
     31 H31          2.5510     1.9640     2.7760 ha         1 ZK9       0.189000
     32 H32          3.4490    -0.2050     3.5590 ha         1 ZK9       0.180000
     33 H33         -2.3170    -0.4480     2.3400 ha         1 ZK9       0.188000
     34 H34         -1.4030    -2.7230     2.6680 ha         1 ZK9       0.172000
     35 H35         -0.6620    -4.0550     0.7300 ha         1 ZK9       0.132000
     36 H36         -1.7070    -0.8110    -1.8790 ha         1 ZK9       0.152000
     37 H37         -0.2640    -2.7350    -2.6670 hx         1 ZK9       0.086700
     38 H38         -0.0370    -4.1380    -1.6150 hx         1 ZK9       0.086700
     39 H39         -2.3810    -4.6210    -1.8510 hn         1 ZK9       0.464800
     40 H45         -2.5930    -3.3260    -2.8390 hn         1 ZK9       0.464800
     41 H46         -1.6330    -4.5680    -3.3120 hn         1 ZK9       0.464800
     42 H40          2.4660    -4.2880    -0.5380 hn         1 ZK9       0.326700
     43 H48          2.0810    -3.5830     0.9780 hn         1 ZK9       0.326700
     44 H41          3.0580    -1.1740    -2.1070 hn         1 ZK9       0.326700
     45 H47          2.7800    -2.8370    -2.4100 hn         1 ZK9       0.326700
     46 H42         -2.4090     5.9510    -0.1640 hc         1 ZK9       0.080367
     47 H43         -1.1530     6.0700    -1.3910 hc         1 ZK9       0.080367
     48 H44         -2.7040     5.3410    -1.7870 hc         1 ZK9       0.080367
@<TRIPOS>BOND
     1     1     2 ar  
     2     1     6 ar  
     3     1    29 1   
     4     2     3 ar  
     5     2    23 1   
     6     3     4 ar  
     7     3    30 1   
     8     4     5 ar  
     9     4     7 1   
    10     5     6 ar  
    11     5    31 1   
    12     6    32 1   
    13     7     8 1   
    14     8     9 ar  
    15     8    11 ar  
    16     9    10 ar  
    17    10    13 ar  
    18    10    14 1   
    19    11    12 ar  
    20    11    26 1   
    21    12    13 ar  
    22    12    27 1   
    23    13    28 1   
    24    14    15 1   
    25    15    16 ar  
    26    15    20 ar  
    27    16    17 ar  
    28    16    33 1   
    29    17    18 ar  
    30    17    34 1   
    31    18    19 ar  
    32    18    35 1   
    33    19    20 ar  
    34    19    21 1   
    35    20    36 1   
    36    21    22 1   
    37    21    37 1   
    38    21    38 1   
    39    22    39 1   
    40    22    40 1   
    41    22    41 1   
    42    23    24 2   
    43    23    25 1   
    44    24    42 1   
    45    24    43 1   
    46    25    44 1   
    47    25    45 1   
    48    27    46 1   
    49    27    47 1   
    50    27    48 1   
@<TRIPOS>SUBSTRUCTURE
     1 ZK9         1 TEMP              0 ****  ****    0 ROOT
