@<TRIPOS>MOLECULE
ZK9
   48    50     1     0     0
SMALL
No Charge or Current Charge


@<TRIPOS>ATOM
      1 C1           3.4870    -1.0510     1.7420 ca         1 ZK9      -0.065000
      2 C2           2.7610    -1.0760     0.5290 ca         1 ZK9      -0.257900
      3 C3           2.1600     0.1210     0.0700 ca         1 ZK9      -0.069000
      4 C4           2.2730     1.3110     0.8170 ca         1 ZK9       0.138100
      5 C5           3.0090     1.3240     2.0110 ca         1 ZK9      -0.027000
      6 C6           3.6130     0.1430     2.4750 ca         1 ZK9      -0.079000
      7 O7           1.6920     2.4820     0.3770 os         1 ZK9      -0.333400
      8 C8           0.3390     2.6100     0.1350 ca         1 ZK9       0.551300
      9 N9          -0.4870     1.5970     0.4880 nb         1 ZK9      -0.812000
     10 C10         -1.8110     1.7420     0.2510 ca         1 ZK9       0.547300
     11 C11         -0.1330     3.8110    -0.4510 ca         1 ZK9       0.131000
     12 C12         -1.5140     3.9760    -0.6930 ca         1 ZK9      -0.045300
     13 C13         -2.3650     2.9120    -0.3230 ca         1 ZK9       0.125000
     14 O14         -2.6500     0.7100     0.6040 os         1 ZK9      -0.337400
     15 C15         -2.2580    -0.6080     0.5300 ca         1 ZK9       0.146100
     16 C16         -2.4580    -1.4500     1.6360 ca         1 ZK9      -0.036000
     17 C17         -2.0710    -2.8010     1.5700 ca         1 ZK9      -0.084000
     18 C18         -1.4970    -3.3120     0.3920 ca         1 ZK9      -0.102000
     19 C19         -1.3080    -2.4770    -0.7250 ca         1 ZK9      -0.206300
     20 C20         -1.6900    -1.1230    -0.6530 ca         1 ZK9      -0.093000
     21 C21         -0.7150    -3.0310    -1.9990 c3         1 ZK9       0.171900
     22 N22         -1.8630    -3.5210    -2.8150 nz         1 ZK9      -0.977000
     23 C23          2.6320    -2.3350    -0.2530 ce         1 ZK9       0.527400
     24 N24          2.5550    -3.5320     0.4030 nv         1 ZK9      -0.581200
     25 N25          2.6970    -2.2860    -1.6180 nv         1 ZK9      -0.565300
     26 F26          0.7370     4.8010    -0.7710 f          1 ZK9      -0.125000
     27 C27         -2.0660     5.2590    -1.3160 c3         1 ZK9      -0.059800
     28 F28         -3.7040     3.0090    -0.5200 f          1 ZK9      -0.129000
     29 H29          3.9740    -1.9500     2.1180 ha         1 ZK9       0.132000
     30 H30          1.5870     0.1310    -0.8540 ha         1 ZK9       0.130000
     31 H31          3.1060     2.2470     2.5760 ha         1 ZK9       0.171000
     32 H32          4.1820     0.1540     3.4030 ha         1 ZK9       0.162000
     33 H33         -2.9050    -1.0520     2.5430 ha         1 ZK9       0.170000
     34 H34         -2.2210    -3.4510     2.4300 ha         1 ZK9       0.154000
     35 H35         -1.2060    -4.3600     0.3490 ha         1 ZK9       0.114000
     36 H36         -1.5510    -0.4710    -1.5120 ha         1 ZK9       0.134000
     37 H37         -0.1730    -2.2580    -2.5550 hx         1 ZK9       0.086700
     38 H38         -0.0340    -3.8620    -1.7910 hx         1 ZK9       0.086700
     39 H39         -2.4090    -4.2480    -2.3310 hn         1 ZK9       0.520000
     40 H45         -2.5360    -2.7760    -3.0420 hn         1 ZK9       0.520000
     41 H46         -1.5770    -3.9320    -3.7160 hn         1 ZK9       0.520000
     42 H40          2.3230    -4.3630    -0.1220 hn         1 ZK9       0.377000
     43 H48          2.3340    -3.5180     1.3900 hn         1 ZK9       0.377000
     44 H41          3.0130    -1.4180    -2.0280 hn         1 ZK9       0.377000
     45 H47          2.9270    -3.1370    -2.1130 hn         1 ZK9       0.377000
     46 H42         -2.3130     5.9950    -0.5420 hc         1 ZK9       0.080367
     47 H43         -1.3450     5.7230    -1.9990 hc         1 ZK9       0.080367
     48 H44         -2.9770     5.0710    -1.8980 hc         1 ZK9       0.080367
@<TRIPOS>BOND
     1     1     2 ar  
     2     1     6 ar  
     3     1    29 1   
     4     2     3 ar  
     5     2    23 1   
     6     3     4 ar  
     7     3    30 1   
     8     4     5 ar  
     9     4     7 1   
    10     5     6 ar  
    11     5    31 1   
    12     6    32 1   
    13     7     8 1   
    14     8     9 ar  
    15     8    11 ar  
    16     9    10 ar  
    17    10    13 ar  
    18    10    14 1   
    19    11    12 ar  
    20    11    26 1   
    21    12    13 ar  
    22    12    27 1   
    23    13    28 1   
    24    14    15 1   
    25    15    16 ar  
    26    15    20 ar  
    27    16    17 ar  
    28    16    33 1   
    29    17    18 ar  
    30    17    34 1   
    31    18    19 ar  
    32    18    35 1   
    33    19    20 ar  
    34    19    21 1   
    35    20    36 1   
    36    21    22 1   
    37    21    37 1   
    38    21    38 1   
    39    22    39 1   
    40    22    40 1   
    41    22    41 1   
    42    23    24 2   
    43    23    25 1   
    44    24    42 1   
    45    24    43 1   
    46    25    44 1   
    47    25    45 1   
    48    27    46 1   
    49    27    47 1   
    50    27    48 1   
@<TRIPOS>SUBSTRUCTURE
     1 ZK9         1 TEMP              0 ****  ****    0 ROOT
