@<TRIPOS>MOLECULE
ZKA
  104   110     1     0     0
SMALL
abcg2


@<TRIPOS>ATOM
      1 C10        -12.7980    14.5200    14.5720 c          1 ZKA       0.600100
      2 C17        -13.3740    17.3280    10.4060 c3         1 ZKA       0.218600
      3 C21        -11.0100    18.9560    16.5640 ca         1 ZKA       0.554300
      4 C24         -9.5580    21.1250    17.0780 ca         1 ZKA       0.166000
      5 C26        -10.6380    19.8620    15.5070 ca         1 ZKA       0.322300
      6 C28         -8.8060    21.5870    19.7320 ca         1 ZKA       0.163100
      7 C01        -11.0190    15.0880    16.1040 c5         1 ZKA       0.031700
      8 C02        -10.9860    15.9450    17.3750 c5         1 ZKA      -0.109400
      9 C03        -12.1200    16.9360    17.1580 c5         1 ZKA       0.165300
     10 C04        -13.1880    16.0810    16.5070 c5         1 ZKA       0.106000
     11 C06        -10.6520    13.6370    16.3810 c          1 ZKA       0.590100
     12 C09         -9.1880    11.8080    15.8250 cx         1 ZKA      -0.067600
     13 C11        -14.2760    14.5330    14.1710 c3         1 ZKA       0.065700
     14 C18        -14.8600    13.1330    14.3800 c3         1 ZKA      -0.089400
     15 C19        -14.8960    12.7040    15.8450 c3         1 ZKA      -0.079400
     16 C23         -9.9300    20.2270    18.0970 ca         1 ZKA       0.306000
     17 C27         -9.5480    20.4650    19.4290 ca         1 ZKA      -0.202000
     18 C29         -8.4250    22.4880    18.7090 ca         1 ZKA      -0.141000
     19 C30         -8.7930    22.2600    17.4130 ca         1 ZKA      -0.029000
     20 C32         -8.7490    21.0770    22.0440 c3         1 ZKA       0.145900
     21 C33        -11.0630    19.6030    14.0990 c3         1 ZKA      -0.139400
     22 C34         -8.6160    11.2040    17.0660 c          1 ZKA       0.677100
     23 C40         -7.8800    13.1560    20.4210 cx         1 ZKA      -0.401000
     24 C41         -6.9510    14.2930    20.1050 cx         1 ZKA      -0.077900
     25 C42         -6.7770    13.5250    21.3700 cx         1 ZKA      -0.077900
     26 C43         -9.3220    13.4130    20.7790 c3         1 ZKA      -0.041100
     27 C44        -10.1090    10.9700    14.9310 cx         1 ZKA      -0.035500
     28 C45        -10.6350     9.6350    15.2740 c2         1 ZKA      -0.189200
     29 C46        -11.9320     9.3180    15.2860 c2         1 ZKA      -0.191200
     30 C47        -13.0990    10.2230    15.0310 c3         1 ZKA      -0.047200
     31 C48        -14.0350    10.3080    16.2390 c3         1 ZKA      -0.074400
     32 C49         -8.7040    11.2300    14.5220 cx         1 ZKA      -0.096400
     33 C50        -15.2450    11.2220    16.0460 c3         1 ZKA      -0.066400
     34 C51        -13.2230    17.0590     8.9380 cx         1 ZKA      -0.123000
     35 C52        -13.3400    18.2560     8.0420 cx         1 ZKA      -0.120400
     36 C53        -14.4350    17.2320     8.0730 cx         1 ZKA      -0.120400
     37 C54        -12.2230    15.9880     8.5760 c3         1 ZKA      -0.056100
     38 N05        -12.4110    15.1660    15.6810 n          1 ZKA      -0.384800
     39 N08         -9.4790    13.2030    15.8600 ns         1 ZKA      -0.473900
     40 N13        -14.3880    14.8910    12.7770 ns         1 ZKA      -0.486900
     41 N22        -10.6670    19.1250    17.7980 nb         1 ZKA      -0.757000
     42 N25         -9.9280    20.9100    15.7900 nb         1 ZKA      -0.615000
     43 N35         -8.3640    12.1030    18.0690 ns         1 ZKA      -0.565300
     44 O07        -11.3630    12.9240    17.0620 o          1 ZKA      -0.567100
     45 O12        -11.9970    13.8820    13.9000 o          1 ZKA      -0.624100
     46 O15        -13.9240    16.1510    11.0130 os         1 ZKA      -0.453100
     47 O16        -13.4580    16.9300    13.0770 o          1 ZKA      -0.554000
     48 O20        -11.7530    17.9200    16.1890 os         1 ZKA      -0.443300
     49 O31         -8.3950    21.9190    20.9650 os         1 ZKA      -0.335100
     50 O36         -8.3720    10.0230    17.1820 o          1 ZKA      -0.548100
     51 O38         -8.3640    10.5750    20.1140 o          1 ZKA      -0.515000
     52 O39         -6.1940    11.4620    19.2710 o          1 ZKA      -0.515000
     53 S37         -7.6120    11.6610    19.5150 s6         1 ZKA       1.251800
     54 H172       -12.4040    17.5600    10.8520 h1         1 ZKA       0.052700
     55 H171       -14.0410    18.1760    10.5820 h1         1 ZKA       0.052700
     56 H011       -10.3670    15.5120    15.3340 h1         1 ZKA       0.076700
     57 H021       -11.2190    15.3410    18.2540 hc         1 ZKA       0.075700
     58 H022       -10.0160    16.4130    17.5380 hc         1 ZKA       0.075700
     59 H031       -12.4640    17.4110    18.0770 h1         1 ZKA       0.090700
     60 H041       -13.8820    16.6740    15.9150 h1         1 ZKA       0.073700
     61 H042       -13.7550    15.5490    17.2750 h1         1 ZKA       0.073700
     62 H111       -14.8510    15.2390    14.7740 h1         1 ZKA       0.073700
     63 H182       -15.8790    13.1270    13.9810 hc         1 ZKA       0.057200
     64 H181       -14.2880    12.4240    13.7780 hc         1 ZKA       0.057200
     65 H192       -13.9370    12.9090    16.3280 hc         1 ZKA       0.048700
     66 H191       -15.6270    13.3310    16.3620 hc         1 ZKA       0.048700
     67 H271        -9.8580    19.7530    20.1820 ha         1 ZKA       0.133000
     68 H291        -7.8400    23.3610    18.9700 ha         1 ZKA       0.134000
     69 H301        -8.5070    22.9480    16.6280 ha         1 ZKA       0.136000
     70 H321        -8.3260    21.5260    22.9380 h1         1 ZKA       0.044033
     71 H322        -9.8330    21.0040    22.1630 h1         1 ZKA       0.044033
     72 H323        -8.3390    20.0700    21.9260 h1         1 ZKA       0.044033
     73 H332       -10.6810    20.3870    13.4500 hc         1 ZKA       0.062033
     74 H331       -10.6900    18.6420    13.7390 hc         1 ZKA       0.062033
     75 H333       -12.1500    19.5760    14.0090 hc         1 ZKA       0.062033
     76 H412        -6.2060    14.1660    19.3300 hc         1 ZKA       0.088450
     77 H411        -7.3940    15.2800    20.1450 hc         1 ZKA       0.088450
     78 H421        -7.1010    13.9690    22.3020 hc         1 ZKA       0.088450
     79 H422        -5.9140    12.8790    21.4570 hc         1 ZKA       0.088450
     80 H431        -9.3820    14.3360    21.3550 hc         1 ZKA       0.052700
     81 H433        -9.9470    13.5340    19.8940 hc         1 ZKA       0.052700
     82 H432        -9.7320    12.6110    21.3910 hc         1 ZKA       0.052700
     83 H441       -10.8230    11.6210    14.4430 hc         1 ZKA       0.101700
     84 H451        -9.9140     8.8580    15.4930 ha         1 ZKA       0.192000
     85 H461       -12.1890     8.2890    15.5210 ha         1 ZKA       0.168000
     86 H471       -12.7600    11.2210    14.7560 hc         1 ZKA       0.045700
     87 H472       -13.6670     9.8420    14.1750 hc         1 ZKA       0.045700
     88 H481       -14.3860     9.3020    16.4870 hc         1 ZKA       0.048200
     89 H482       -13.4660    10.6540    17.1080 hc         1 ZKA       0.048200
     90 H491        -7.9880    10.4210    14.5920 hc         1 ZKA       0.088200
     91 H492        -8.5240    11.9310    13.7160 hc         1 ZKA       0.088200
     92 H502       -15.8790    11.1230    16.9310 hc         1 ZKA       0.037700
     93 H501       -15.8500    10.8630    15.2070 hc         1 ZKA       0.037700
     94 H522       -12.6970    18.2930     7.1710 hc         1 ZKA       0.074700
     95 H521       -13.5330    19.2240     8.4890 hc         1 ZKA       0.074700
     96 H532       -15.3730    17.5020     8.5430 hc         1 ZKA       0.074700
     97 H531       -14.5400    16.5720     7.2210 hc         1 ZKA       0.074700
     98 H541       -11.2340    16.2230     8.9770 hc         1 ZKA       0.040367
     99 H543       -12.5180    15.0130     8.9660 hc         1 ZKA       0.040367
    100 H542       -12.1270    15.8940     7.4940 hc         1 ZKA       0.040367
    101 H081        -8.9590    13.8130    15.2450 hn         1 ZKA       0.322500
    102 H131       -14.6000    14.1680    12.1070 hn         1 ZKA       0.336500
    103 H351        -8.3950    13.0960    17.8620 hn         1 ZKA       0.338500
    104 C14        -13.8850    16.0630    12.3400 c          1 ZKA       0.639100
@<TRIPOS>BOND
     1     1    13 1   
     2     1    38 1   
     3     1    45 2   
     4     2    34 1   
     5     2    46 1   
     6     2    54 1   
     7     2    55 1   
     8     3     5 ar  
     9     3    41 ar  
    10     3    48 1   
    11     4    16 ar  
    12     4    19 ar  
    13     4    42 ar  
    14     5    21 1   
    15     5    42 ar  
    16     6    17 ar  
    17     6    18 ar  
    18     6    49 1   
    19     7     8 1   
    20     7    11 1   
    21     7    38 1   
    22     7    56 1   
    23     8     9 1   
    24     8    57 1   
    25     8    58 1   
    26     9    10 1   
    27     9    48 1   
    28     9    59 1   
    29    10    38 1   
    30    10    60 1   
    31    10    61 1   
    32    11    39 1   
    33    11    44 2   
    34    12    22 1   
    35    12    27 1   
    36    12    32 1   
    37    12    39 1   
    38    13    14 1   
    39    13    40 1   
    40    13    62 1   
    41    14    15 1   
    42    14    63 1   
    43    14    64 1   
    44    15    33 1   
    45    15    65 1   
    46    15    66 1   
    47    16    17 ar  
    48    16    41 ar  
    49    17    67 1   
    50    18    19 ar  
    51    18    68 1   
    52    19    69 1   
    53    20    49 1   
    54    20    70 1   
    55    20    71 1   
    56    20    72 1   
    57    21    73 1   
    58    21    74 1   
    59    21    75 1   
    60    22    43 1   
    61    22    50 2   
    62    23    24 1   
    63    23    25 1   
    64    23    26 1   
    65    23    53 1   
    66    24    25 1   
    67    24    76 1   
    68    24    77 1   
    69    25    78 1   
    70    25    79 1   
    71    26    80 1   
    72    26    81 1   
    73    26    82 1   
    74    27    28 1   
    75    27    32 1   
    76    27    83 1   
    77    28    29 2   
    78    28    84 1   
    79    29    30 1   
    80    29    85 1   
    81    30    31 1   
    82    30    86 1   
    83    30    87 1   
    84    31    33 1   
    85    31    88 1   
    86    31    89 1   
    87    32    90 1   
    88    32    91 1   
    89    33    92 1   
    90    33    93 1   
    91    34    35 1   
    92    34    36 1   
    93    34    37 1   
    94    35    36 1   
    95    35    94 1   
    96    35    95 1   
    97    36    96 1   
    98    36    97 1   
    99    37    98 1   
   100    37    99 1   
   101    37   100 1   
   102    39   101 1   
   103    40   102 1   
   104    40   104 1   
   105    43    53 1   
   106    43   103 1   
   107    46   104 1   
   108    47   104 2   
   109    51    53 2   
   110    52    53 2   
@<TRIPOS>SUBSTRUCTURE
     1 ZKA         1 TEMP              0 ****  ****    0 ROOT
