@<TRIPOS>MOLECULE
ZKA
  104   110     1     0     0
SMALL
No Charge or Current Charge


@<TRIPOS>ATOM
      1 C10        -12.4290    15.0190    14.2580 c          1 ZKA       0.600100
      2 C17        -15.8390    16.4410     9.5350 c3         1 ZKA       0.218600
      3 C21        -10.0550    18.9120    16.8890 ca         1 ZKA       0.554300
      4 C24         -8.0600    20.3260    18.1000 ca         1 ZKA       0.166000
      5 C26         -8.8050    19.1770    16.2390 ca         1 ZKA       0.322300
      6 C28         -8.5360    21.2960    20.7210 ca         1 ZKA       0.163100
      7 C01        -10.8090    15.3100    16.1780 c5         1 ZKA       0.031700
      8 C02        -10.9500    16.1350    17.4960 c5         1 ZKA      -0.109400
      9 C03        -11.8230    17.3460    17.0550 c5         1 ZKA       0.165300
     10 C04        -12.8890    16.6590    16.1540 c5         1 ZKA       0.106000
     11 C06        -10.6020    13.8080    16.5410 c          1 ZKA       0.590100
     12 C09         -9.0980    11.9070    15.9840 cx         1 ZKA      -0.067600
     13 C11        -13.9180    14.9800    13.7900 c3         1 ZKA       0.065700
     14 C18        -14.5460    13.5800    14.0330 c3         1 ZKA      -0.089400
     15 C19        -14.6240    13.1410    15.5190 c3         1 ZKA      -0.079400
     16 C23         -9.3180    20.0810    18.7480 ca         1 ZKA       0.306000
     17 C27         -9.5370    20.5700    20.0460 ca         1 ZKA      -0.202000
     18 C29         -7.3090    21.5340    20.0880 ca         1 ZKA      -0.141000
     19 C30         -7.0730    21.0530    18.7900 ca         1 ZKA      -0.029000
     20 C32         -9.9300    21.6050    22.7360 c3         1 ZKA       0.145900
     21 C33         -8.5100    18.6770    14.8310 c3         1 ZKA      -0.139400
     22 C34         -8.9780    11.1970    17.3470 c          1 ZKA       0.677100
     23 C40         -7.7800    13.3080    20.6110 cx         1 ZKA      -0.401000
     24 C41         -6.3910    13.9020    20.4520 cx         1 ZKA      -0.077900
     25 C42         -6.8520    13.4160    21.8090 cx         1 ZKA      -0.077900
     26 C43         -9.0100    14.2210    20.5210 c3         1 ZKA      -0.041100
     27 C44         -9.6400    11.2040    14.7460 cx         1 ZKA      -0.035500
     28 C45        -10.2970     9.8670    14.8320 c2         1 ZKA      -0.189200
     29 C46        -11.6250     9.6430    14.8020 c2         1 ZKA      -0.191200
     30 C47        -12.7290    10.6820    14.6580 c3         1 ZKA      -0.047200
     31 C48        -13.6940    10.7050    15.8650 c3         1 ZKA      -0.074400
     32 C49         -8.1530    11.3970    14.9140 cx         1 ZKA      -0.096400
     33 C50        -14.9330    11.6340    15.7220 c3         1 ZKA      -0.066400
     34 C51        -15.2670    16.5430     8.1170 cx         1 ZKA      -0.123000
     35 C52        -16.1770    16.2750     6.9360 cx         1 ZKA      -0.120400
     36 C53        -15.0960    15.2820     7.2960 cx         1 ZKA      -0.120400
     37 C54        -14.2200    17.6530     8.0050 c3         1 ZKA      -0.056100
     38 N05        -12.1220    15.5550    15.5270 n          1 ZKA      -0.384800
     39 N08         -9.4230    13.3260    16.0030 ns         1 ZKA      -0.473900
     40 N13        -13.9870    15.3150    12.3540 ns         1 ZKA      -0.486900
     41 N22        -10.3130    19.3840    18.1400 nb         1 ZKA      -0.757000
     42 N25         -7.8040    19.8760    16.8430 nb         1 ZKA      -0.615000
     43 N35         -8.3640    11.9650    18.2790 ns         1 ZKA      -0.565300
     44 O07        -11.3490    13.1150    17.2170 o          1 ZKA      -0.567100
     45 O12        -11.5400    14.5220    13.5740 o          1 ZKA      -0.624100
     46 O15        -14.7970    15.9510    10.3940 os         1 ZKA      -0.453100
     47 O16        -16.1690    16.0170    12.2380 o          1 ZKA      -0.554000
     48 O20        -11.0340    18.2190    16.1870 os         1 ZKA      -0.443300
     49 O31         -8.7100    21.7930    21.9960 os         1 ZKA      -0.335100
     50 O36         -9.3590    10.0590    17.5790 o          1 ZKA      -0.548100
     51 O38         -9.3880    11.1150    20.4480 o          1 ZKA      -0.515000
     52 O39         -6.9060    10.8100    19.9870 o          1 ZKA      -0.515000
     53 S37         -8.1290    11.6150    19.8850 s6         1 ZKA       1.251800
     54 H172       -16.1900    17.4290     9.8650 h1         1 ZKA       0.052700
     55 H171       -16.6970    15.7550     9.5420 h1         1 ZKA       0.052700
     56 H011        -9.9850    15.6770    15.5510 h1         1 ZKA       0.076700
     57 H021       -11.4780    15.5690    18.2730 hc         1 ZKA       0.075700
     58 H022        -9.9820    16.4180    17.9230 hc         1 ZKA       0.075700
     59 H031       -12.2860    17.9040    17.8810 h1         1 ZKA       0.090700
     60 H041       -13.2980    17.3600    15.4140 h1         1 ZKA       0.073700
     61 H042       -13.7190    16.2620    16.7530 h1         1 ZKA       0.073700
     62 H111       -14.4920    15.7290    14.3480 h1         1 ZKA       0.073700
     63 H182       -15.5630    13.5660    13.6200 hc         1 ZKA       0.057200
     64 H181       -13.9780    12.8450    13.4530 hc         1 ZKA       0.057200
     65 H192       -13.6970    13.3830    16.0460 hc         1 ZKA       0.048700
     66 H191       -15.4110    13.7320    16.0050 hc         1 ZKA       0.048700
     67 H271       -10.4960    20.3720    20.5130 ha         1 ZKA       0.133000
     68 H291        -6.5350    22.0940    20.6070 ha         1 ZKA       0.134000
     69 H301        -6.1160    21.2460    18.3110 ha         1 ZKA       0.136000
     70 H321        -9.8520    22.0790    23.7230 h1         1 ZKA       0.044033
     71 H322       -10.7800    22.0560    22.2090 h1         1 ZKA       0.044033
     72 H323       -10.1340    20.5370    22.8870 h1         1 ZKA       0.044033
     73 H332        -7.5490    19.0490    14.4570 hc         1 ZKA       0.062033
     74 H331        -8.4760    17.5820    14.8080 hc         1 ZKA       0.062033
     75 H333        -9.2880    19.0040    14.1320 hc         1 ZKA       0.062033
     76 H412        -5.6280    13.3180    19.9420 hc         1 ZKA       0.088450
     77 H411        -6.3030    14.9770    20.3060 hc         1 ZKA       0.088450
     78 H421        -7.0720    14.1670    22.5650 hc         1 ZKA       0.088450
     79 H422        -6.3970    12.5070    22.1990 hc         1 ZKA       0.088450
     80 H431        -8.8020    15.2170    20.9310 hc         1 ZKA       0.052700
     81 H433        -9.3340    14.3570    19.4820 hc         1 ZKA       0.052700
     82 H432        -9.8560    13.8070    21.0850 hc         1 ZKA       0.052700
     83 H441       -10.0920    11.8410    13.9870 hc         1 ZKA       0.101700
     84 H451        -9.6150     9.0200    14.9330 ha         1 ZKA       0.192000
     85 H461       -11.9950     8.6180    14.8750 ha         1 ZKA       0.168000
     86 H471       -12.3040    11.6830    14.5350 hc         1 ZKA       0.045700
     87 H472       -13.3030    10.4720    13.7470 hc         1 ZKA       0.045700
     88 H481       -14.0540     9.6840    16.0440 hc         1 ZKA       0.048200
     89 H482       -13.1320    10.9930    16.7620 hc         1 ZKA       0.048200
     90 H491        -7.5510    10.5190    15.1380 hc         1 ZKA       0.088200
     91 H492        -7.6610    12.1270    14.2760 hc         1 ZKA       0.088200
     92 H502       -15.5270    11.5300    16.6390 hc         1 ZKA       0.037700
     93 H501       -15.5730    11.2730    14.9070 hc         1 ZKA       0.037700
     94 H522       -16.0370    16.8690     6.0350 hc         1 ZKA       0.074700
     95 H521       -17.2080    15.9930     7.1330 hc         1 ZKA       0.074700
     96 H532       -15.4030    14.3380     7.7400 hc         1 ZKA       0.074700
     97 H531       -14.2330    15.2120     6.6380 hc         1 ZKA       0.074700
     98 H541       -14.6440    18.6240     8.2870 hc         1 ZKA       0.040367
     99 H543       -13.3610    17.4570     8.6580 hc         1 ZKA       0.040367
    100 H542       -13.8400    17.7440     6.9800 hc         1 ZKA       0.040367
    101 H081        -8.8740    13.9740    15.4480 hn         1 ZKA       0.322500
    102 H131       -13.1660    15.1700    11.7790 hn         1 ZKA       0.336500
    103 H351        -8.0530    12.8860    18.0320 hn         1 ZKA       0.338500
    104 C14        -15.0940    15.7840    11.7090 c          1 ZKA       0.639100
@<TRIPOS>BOND
     1     1    13 1   
     2     1    38 1   
     3     1    45 2   
     4     2    34 1   
     5     2    46 1   
     6     2    54 1   
     7     2    55 1   
     8     3     5 ar  
     9     3    41 ar  
    10     3    48 1   
    11     4    16 ar  
    12     4    19 ar  
    13     4    42 ar  
    14     5    21 1   
    15     5    42 ar  
    16     6    17 ar  
    17     6    18 ar  
    18     6    49 1   
    19     7     8 1   
    20     7    11 1   
    21     7    38 1   
    22     7    56 1   
    23     8     9 1   
    24     8    57 1   
    25     8    58 1   
    26     9    10 1   
    27     9    48 1   
    28     9    59 1   
    29    10    38 1   
    30    10    60 1   
    31    10    61 1   
    32    11    39 1   
    33    11    44 2   
    34    12    22 1   
    35    12    27 1   
    36    12    32 1   
    37    12    39 1   
    38    13    14 1   
    39    13    40 1   
    40    13    62 1   
    41    14    15 1   
    42    14    63 1   
    43    14    64 1   
    44    15    33 1   
    45    15    65 1   
    46    15    66 1   
    47    16    17 ar  
    48    16    41 ar  
    49    17    67 1   
    50    18    19 ar  
    51    18    68 1   
    52    19    69 1   
    53    20    49 1   
    54    20    70 1   
    55    20    71 1   
    56    20    72 1   
    57    21    73 1   
    58    21    74 1   
    59    21    75 1   
    60    22    43 1   
    61    22    50 2   
    62    23    24 1   
    63    23    25 1   
    64    23    26 1   
    65    23    53 1   
    66    24    25 1   
    67    24    76 1   
    68    24    77 1   
    69    25    78 1   
    70    25    79 1   
    71    26    80 1   
    72    26    81 1   
    73    26    82 1   
    74    27    28 1   
    75    27    32 1   
    76    27    83 1   
    77    28    29 2   
    78    28    84 1   
    79    29    30 1   
    80    29    85 1   
    81    30    31 1   
    82    30    86 1   
    83    30    87 1   
    84    31    33 1   
    85    31    88 1   
    86    31    89 1   
    87    32    90 1   
    88    32    91 1   
    89    33    92 1   
    90    33    93 1   
    91    34    35 1   
    92    34    36 1   
    93    34    37 1   
    94    35    36 1   
    95    35    94 1   
    96    35    95 1   
    97    36    96 1   
    98    36    97 1   
    99    37    98 1   
   100    37    99 1   
   101    37   100 1   
   102    39   101 1   
   103    40   102 1   
   104    40   104 1   
   105    43    53 1   
   106    43   103 1   
   107    46   104 1   
   108    47   104 2   
   109    51    53 2   
   110    52    53 2   
@<TRIPOS>SUBSTRUCTURE
     1 ZKA         1 TEMP              0 ****  ****    0 ROOT
