@<TRIPOS>MOLECULE
ZKC
   59    61     1     0     0
SMALL
abcg2


@<TRIPOS>ATOM
      1 N1         -15.3310    23.0790    28.3050 ns         1 ZKC      -0.149000
      2 N3         -17.9830    15.7870    26.0550 n          1 ZKC      -0.430800
      3 C4         -11.1210    22.6120    28.1030 c3         1 ZKC      -0.109100
      4 C5         -14.0260    23.4430    28.0970 c          1 ZKC       0.658100
      5 C6         -16.1370    22.0570    27.7720 ca         1 ZKC       0.006000
      6 C7         -17.5130    22.1570    28.0210 ca         1 ZKC      -0.167000
      7 C8         -18.3770    21.1810    27.5560 ca         1 ZKC      -0.075000
      8 C10        -16.5350    19.9840    26.5810 ca         1 ZKC      -0.074300
      9 C13        -18.5360    14.9330    27.1030 c6         1 ZKC       0.088500
     10 C15        -18.9290    14.3200    24.3200 c6         1 ZKC       0.089500
     11 C20        -22.5320    10.6920    27.4970 cc         1 ZKC      -0.195000
     12 C21        -22.1160    11.7650    28.2200 cd         1 ZKC       0.145900
     13 C22        -15.6580    20.9590    27.0560 ca         1 ZKC      -0.136000
     14 C11        -15.9430    18.8400    25.7770 c3         1 ZKC       0.159300
     15 C12        -17.1130    16.7880    26.4180 c          1 ZKC       0.651100
     16 C14        -18.7130    13.5120    26.5940 c6         1 ZKC       0.089500
     17 C16        -18.7260    15.7550    24.8000 c6         1 ZKC       0.088500
     18 C18        -21.2770    12.0220    26.2040 cd         1 ZKC       0.062500
     19 C19        -21.9960    10.8640    26.1860 cc         1 ZKC      -0.104000
     20 C2         -11.9780    22.8350    26.8640 c3         1 ZKC       0.218000
     21 C3         -11.7570    21.7210    25.8490 c3         1 ZKC      -0.109100
     22 C9         -17.8980    20.0930    26.8300 ca         1 ZKC      -0.130000
     23 N2         -16.8420    17.7460    25.4860 ns         1 ZKC      -0.517900
     24 N4         -19.5220    13.5120    25.3760 n          1 ZKC      -0.407800
     25 O1         -13.4090    22.6690    27.2070 os         1 ZKC      -0.473100
     26 O2         -13.5350    24.3920    28.6880 o          1 ZKC      -0.542000
     27 O3         -16.5660    16.8020    27.5270 o          1 ZKC      -0.635100
     28 O4         -20.9860    12.5220    23.9470 o          1 ZKC      -0.596100
     29 O5         -21.3500    12.5850    27.4530 os         1 ZKC      -0.248000
     30 H10        -15.8050    23.7180    28.9260 hn         1 ZKC       0.167000
     31 H7         -11.3630    21.6510    28.5600 hc         1 ZKC       0.052256
     32 H8         -10.0710    22.5950    27.8070 hc         1 ZKC       0.052256
     33 H9         -11.2640    23.4020    28.8360 hc         1 ZKC       0.052256
     34 H11        -17.8930    23.0030    28.5830 ha         1 ZKC       0.113000
     35 H12        -19.4380    21.2700    27.7580 ha         1 ZKC       0.113000
     36 H18        -17.8560    14.9420    27.9480 h1         1 ZKC       0.057200
     37 H17        -19.5070    15.3240    27.4300 h1         1 ZKC       0.057200
     38 H21        -17.9650    13.8890    24.0340 h1         1 ZKC       0.066200
     39 H22        -19.5850    14.3100    23.4550 h1         1 ZKC       0.066200
     40 H27        -22.2750    12.0820    29.2370 h4         1 ZKC       0.056100
     41 H28        -14.6030    20.8550    26.8680 ha         1 ZKC       0.135000
     42 H15        -15.5860    19.2280    24.8210 h1         1 ZKC       0.065700
     43 H14        -15.0740    18.4480    26.3040 h1         1 ZKC       0.065700
     44 H20        -17.7340    13.0900    26.3460 h1         1 ZKC       0.066200
     45 H19        -19.1680    12.8970    27.3600 h1         1 ZKC       0.066200
     46 H24        -18.1760    16.2730    24.0180 h1         1 ZKC       0.057200
     47 H23        -19.7010    16.2420    24.9210 h1         1 ZKC       0.057200
     48 H25        -22.1220    10.2140    25.3370 ha         1 ZKC       0.157000
     49 H4         -11.9670    20.7480    26.2950 hc         1 ZKC       0.052256
     50 H6         -12.4050    21.8570    24.9820 hc         1 ZKC       0.052256
     51 H5         -10.7200    21.7340    25.5140 hc         1 ZKC       0.052256
     52 H13        -18.5800    19.3360    26.4690 ha         1 ZKC       0.110000
     53 H16        -17.4300    17.8440    24.6780 hn         1 ZKC       0.309500
     54 C17        -20.5730    12.7030    25.0990 c          1 ZKC       0.544600
     55 C1         -11.7500    24.1990    26.2240 c3         1 ZKC      -0.109100
     56 H26        -23.1470     9.8820    27.8510 ha         1 ZKC       0.148000
     57 H1         -11.8880    25.0050    26.9410 hc         1 ZKC       0.052256
     58 H2         -10.7300    24.2410    25.8390 hc         1 ZKC       0.052256
     59 H3         -12.4370    24.3430    25.3880 hc         1 ZKC       0.052256
@<TRIPOS>BOND
     1     1     4 1   
     2     1     5 1   
     3     1    30 1   
     4     2     9 1   
     5     2    15 1   
     6     2    17 1   
     7     3    20 1   
     8     3    31 1   
     9     3    32 1   
    10     3    33 1   
    11     4    25 1   
    12     4    26 2   
    13     5     6 ar  
    14     5    13 ar  
    15     6     7 ar  
    16     6    34 1   
    17     7    22 ar  
    18     7    35 1   
    19     8    13 ar  
    20     8    14 1   
    21     8    22 ar  
    22     9    16 1   
    23     9    36 1   
    24     9    37 1   
    25    10    17 1   
    26    10    24 1   
    27    10    38 1   
    28    10    39 1   
    29    11    12 2   
    30    11    19 1   
    31    11    56 1   
    32    12    29 1   
    33    12    40 1   
    34    13    41 1   
    35    14    23 1   
    36    14    42 1   
    37    14    43 1   
    38    15    23 1   
    39    15    27 2   
    40    16    24 1   
    41    16    44 1   
    42    16    45 1   
    43    17    46 1   
    44    17    47 1   
    45    18    19 2   
    46    18    29 1   
    47    18    54 1   
    48    19    48 1   
    49    20    21 1   
    50    20    25 1   
    51    20    55 1   
    52    21    49 1   
    53    21    50 1   
    54    21    51 1   
    55    22    52 1   
    56    23    53 1   
    57    24    54 1   
    58    28    54 2   
    59    55    57 1   
    60    55    58 1   
    61    55    59 1   
@<TRIPOS>SUBSTRUCTURE
     1 ZKC         1 TEMP              0 ****  ****    0 ROOT
