@<TRIPOS>MOLECULE
ZKC
   59    61     1     0     0
SMALL
No Charge or Current Charge


@<TRIPOS>ATOM
      1 N1         -17.0500    22.1020    27.3520 ns         1 ZKC      -0.149000
      2 N3         -17.1180    16.8810    24.5170 n          1 ZKC      -0.430800
      3 C4         -16.3910    18.1080    28.6130 c3         1 ZKC      -0.109100
      4 C5         -16.6370    21.1240    28.2450 c          1 ZKC       0.658100
      5 C6         -16.8880    22.2410    25.9460 ca         1 ZKC       0.006000
      6 C7         -16.9760    23.5280    25.3870 ca         1 ZKC      -0.167000
      7 C8         -16.8650    23.7120    23.9990 ca         1 ZKC      -0.075000
      8 C10        -16.6180    21.3050    23.6880 ca         1 ZKC      -0.074300
      9 C13        -16.3860    15.7910    25.2330 c6         1 ZKC       0.088500
     10 C15        -19.2550    16.1060    25.7790 c6         1 ZKC       0.089500
     11 C20        -17.1260    13.1650    30.6610 cc         1 ZKC      -0.195000
     12 C21        -16.1110    13.7060    29.9220 cd         1 ZKC       0.145900
     13 C22        -16.7180    21.1340    25.0870 ca         1 ZKC      -0.136000
     14 C11        -16.4410    20.1050    22.7550 c3         1 ZKC       0.159300
     15 C12        -16.3810    17.7880    23.7310 c          1 ZKC       0.651100
     16 C14        -17.2660    14.7140    25.9000 c6         1 ZKC       0.089500
     17 C16        -18.4830    17.2260    25.0340 c6         1 ZKC       0.088500
     18 C18        -17.9590    14.1300    28.8370 cd         1 ZKC       0.062500
     19 C19        -18.3190    13.4450    29.9690 cc         1 ZKC      -0.104000
     20 C2         -15.2200    19.0890    28.3480 c3         1 ZKC       0.218000
     21 C3         -14.2350    18.4760    27.3300 c3         1 ZKC      -0.109100
     22 C9         -16.6850    22.6050    23.1530 ca         1 ZKC      -0.130000
     23 N2         -17.0670    18.8940    23.2940 ns         1 ZKC      -0.517900
     24 N4         -18.3880    15.3040    26.6720 n          1 ZKC      -0.407800
     25 O1         -15.7250    20.2650    27.6780 os         1 ZKC      -0.473100
     26 O2         -17.0380    21.0790    29.3990 o          1 ZKC      -0.542000
     27 O3         -15.1990    17.6180    23.4770 o          1 ZKC      -0.635100
     28 O4         -20.1390    14.6640    28.0160 o          1 ZKC      -0.596100
     29 O5         -16.5900    14.3290    28.7920 os         1 ZKC      -0.248000
     30 H10        -17.6300    22.8160    27.7710 hn         1 ZKC       0.167000
     31 H7         -16.9700    17.9370    27.6980 hc         1 ZKC       0.052256
     32 H8         -16.0080    17.1400    28.9550 hc         1 ZKC       0.052256
     33 H9         -17.0700    18.4830    29.3860 hc         1 ZKC       0.052256
     34 H11        -17.1250    24.3920    26.0310 ha         1 ZKC       0.113000
     35 H12        -16.9250    24.7130    23.5760 ha         1 ZKC       0.113000
     36 H18        -15.7000    15.2920    24.5330 h1         1 ZKC       0.057200
     37 H17        -15.7650    16.2520    26.0130 h1         1 ZKC       0.057200
     38 H21        -19.7110    15.4340    25.0370 h1         1 ZKC       0.066200
     39 H22        -20.0750    16.5640    26.3490 h1         1 ZKC       0.066200
     40 H27        -15.0410    13.7240    30.0910 h4         1 ZKC       0.056100
     41 H28        -16.6880    20.1310    25.4990 ha         1 ZKC       0.135000
     42 H15        -16.9000    20.3250    21.7820 h1         1 ZKC       0.065700
     43 H14        -15.3700    19.9370    22.5860 h1         1 ZKC       0.065700
     44 H20        -17.6940    14.0870    25.1050 h1         1 ZKC       0.066200
     45 H19        -16.6390    14.0450    26.4980 h1         1 ZKC       0.066200
     46 H24        -19.1170    17.5680    24.2040 h1         1 ZKC       0.057200
     47 H23        -18.3740    18.0750    25.7240 h1         1 ZKC       0.057200
     48 H25        -19.3230    13.1710    30.2820 ha         1 ZKC       0.157000
     49 H4         -14.7310    18.2950    26.3690 hc         1 ZKC       0.052256
     50 H6         -13.3910    19.1520    27.1500 hc         1 ZKC       0.052256
     51 H5         -13.8360    17.5220    27.6940 hc         1 ZKC       0.052256
     52 H13        -16.6050    22.7580    22.0790 ha         1 ZKC       0.110000
     53 H16        -18.0480    18.9380    23.5280 hn         1 ZKC       0.309500
     54 C17        -18.9260    14.6900    27.8310 c          1 ZKC       0.544600
     55 C1         -14.4600    19.4920    29.6380 c3         1 ZKC      -0.109100
     56 H26        -17.0400    12.6290    31.6010 ha         1 ZKC       0.148000
     57 H1         -15.1430    19.7680    30.4480 hc         1 ZKC       0.052256
     58 H2         -13.8540    18.6540    30.0010 hc         1 ZKC       0.052256
     59 H3         -13.7870    20.3370    29.4460 hc         1 ZKC       0.052256
@<TRIPOS>BOND
     1     1     4 1   
     2     1     5 1   
     3     1    30 1   
     4     2     9 1   
     5     2    15 1   
     6     2    17 1   
     7     3    20 1   
     8     3    31 1   
     9     3    32 1   
    10     3    33 1   
    11     4    25 1   
    12     4    26 2   
    13     5     6 ar  
    14     5    13 ar  
    15     6     7 ar  
    16     6    34 1   
    17     7    22 ar  
    18     7    35 1   
    19     8    13 ar  
    20     8    14 1   
    21     8    22 ar  
    22     9    16 1   
    23     9    36 1   
    24     9    37 1   
    25    10    17 1   
    26    10    24 1   
    27    10    38 1   
    28    10    39 1   
    29    11    12 2   
    30    11    19 1   
    31    11    56 1   
    32    12    29 1   
    33    12    40 1   
    34    13    41 1   
    35    14    23 1   
    36    14    42 1   
    37    14    43 1   
    38    15    23 1   
    39    15    27 2   
    40    16    24 1   
    41    16    44 1   
    42    16    45 1   
    43    17    46 1   
    44    17    47 1   
    45    18    19 2   
    46    18    29 1   
    47    18    54 1   
    48    19    48 1   
    49    20    21 1   
    50    20    25 1   
    51    20    55 1   
    52    21    49 1   
    53    21    50 1   
    54    21    51 1   
    55    22    52 1   
    56    23    53 1   
    57    24    54 1   
    58    28    54 2   
    59    55    57 1   
    60    55    58 1   
    61    55    59 1   
@<TRIPOS>SUBSTRUCTURE
     1 ZKC         1 TEMP              0 ****  ****    0 ROOT
