@<TRIPOS>MOLECULE
ZKD
   64    66     1     0     0
SMALL
No Charge or Current Charge


@<TRIPOS>ATOM
      1 N1          29.2010     7.7570     1.4490 n          1 ZKD      -0.299000
      2 C2          29.2910     7.4340     2.8180 c          1 ZKD       0.625000
      3 O2          28.4700     7.7870     3.6500 o          1 ZKD      -0.567000
      4 N3          30.3650     6.6860     3.1900 ns         1 ZKD      -0.474500
      5 C4          31.3550     6.1950     2.4050 c          1 ZKD       0.594200
      6 O4          32.2740     5.5350     2.8550 o          1 ZKD      -0.571000
      7 C5          31.1990     6.5270     0.9950 cc         1 ZKD      -0.418200
      8 C6          30.1430     7.2810     0.5370 cd         1 ZKD       0.044600
      9 PA          28.2240     7.2830    -3.6400 p5         1 ZKD       1.465800
     10 PB          26.7030     5.1810    -2.9950 p5         1 ZKD       1.303800
     11 C1          24.2880     5.1540    -0.9880 c6         1 ZKD       0.284300
     12 O1A         29.5330     6.9130    -3.0240 o          1 ZKD      -0.831500
     13 C1B         28.0570     8.5920     0.9990 c5         1 ZKD       0.290700
     14 O1B         27.9150     4.3510    -3.2560 o          1 ZKD      -0.780000
     15 C9          23.7300     6.4250    -1.7090 c6         1 ZKD       0.060700
     16 O2A         28.1670     6.9780    -5.1010 o          1 ZKD      -0.831500
     17 C2B         28.5440    10.0740     0.8800 c5         1 ZKD       0.082300
     18 O2B         25.5580     4.8970    -3.9070 o          1 ZKD      -0.780000
     19 C3          24.2590     7.6830    -0.9660 c6         1 ZKD       0.164300
     20 O3          23.7500     8.9020    -1.5340 oh         1 ZKD      -0.658000
     21 O3A         26.9610     6.7380    -2.8650 os         1 ZKD      -0.701800
     22 C3B         27.4280    10.6090    -0.0620 c5         1 ZKD       0.129300
     23 O3B         26.1920    10.8210     0.6620 oh         1 ZKD      -0.746000
     24 C10         23.9180     7.6480     0.5450 c6         1 ZKD       0.106300
     25 O9          24.5380     8.7480     1.2380 oh         1 ZKD      -0.765000
     26 C4B         27.3620     9.4440    -1.1080 c5         1 ZKD       0.100300
     27 O4B         27.6260     8.2350    -0.3330 os         1 ZKD      -0.462000
     28 C11         24.3740     6.2990     1.1720 c6         1 ZKD       0.129300
     29 O5          23.8600     5.1780     0.3990 os         1 ZKD      -0.458000
     30 C5B         28.3950     9.5850    -2.2670 c3         1 ZKD       0.213600
     31 O5B         27.9590     8.8660    -3.4390 os         1 ZKD      -0.596400
     32 C12         23.8790     6.1480     2.6430 c3         1 ZKD       0.158600
     33 O6          24.2860     7.2570     3.4730 oh         1 ZKD      -0.744000
     34 O7          20.2230     7.0910    -2.4260 o          1 ZKD      -0.677100
     35 C8          21.9930     7.3230    -4.0410 c3         1 ZKD      -0.175100
     36 S1          26.1230     4.9060    -0.9940 ss         1 ZKD      -0.522400
     37 H5          31.9610     6.1380     0.3300 ha         1 ZKD       0.218000
     38 H6          29.9670     7.5420    -0.5040 h4         1 ZKD       0.232000
     39 H1          23.8650     4.2670    -1.4840 h2         1 ZKD       0.091700
     40 H1B         27.2280     8.4840     1.7110 h2         1 ZKD       0.099700
     41 H2B         29.5280    10.1200     0.3910 h1         1 ZKD       0.078700
     42 H3          25.3500     7.6540    -1.0510 h1         1 ZKD       0.091700
     43 HO3         23.7020     9.5280    -0.7780 ho         1 ZKD       0.446000
     44 H3B         27.7470    11.5480    -0.5430 h1         1 ZKD       0.123700
     45 HO3B        25.6960     9.9530     0.7510 ho         1 ZKD       0.537000
     46 H4          22.8250     7.7160     0.6560 h1         1 ZKD       0.035700
     47 HO4         24.4870     8.4570     2.1980 ho         1 ZKD       0.532000
     48 H4B         26.3700     9.4020    -1.5720 h1         1 ZKD       0.129700
     49 H7          25.4730     6.2620     1.1930 h1         1 ZKD       0.114700
     50 H5B         28.4860    10.6490    -2.5210 h1         1 ZKD       0.037700
     51 H5BA        29.3850     9.2530    -1.9300 h1         1 ZKD       0.037700
     52 H9          22.7830     6.0660     2.6340 h1         1 ZKD       0.034700
     53 H6'A        24.2790     5.2070     3.0430 h1         1 ZKD       0.034700
     54 HO6         24.0610     7.0150     4.4040 ho         1 ZKD       0.503000
     55 H8          22.7940     8.0590    -3.9150 hc         1 ZKD       0.069033
     56 H8'A        22.5260     6.4560    -4.4470 hc         1 ZKD       0.069033
     57 H8'B        21.2290     7.6850    -4.7370 hc         1 ZKD       0.069033
     58 HN3         30.4290     6.4680     4.1710 hn         1 ZKD       0.326500
     59 H2          24.1150     6.4510    -2.7340 h1         1 ZKD       0.163700
     60 O8          28.5570    10.8120     2.1120 oh         1 ZKD      -0.710000
     61 HO2         27.6400    11.1780     2.1870 ho         1 ZKD       0.521000
     62 N2          22.2420     6.3790    -1.7440 ns         1 ZKD      -0.491900
     63 C7          21.4110     6.9590    -2.6750 c          1 ZKD       0.611100
     64 HN2         21.7760     6.0740    -0.8990 hn         1 ZKD       0.300500
@<TRIPOS>BOND
     1     1     2 1   
     2     1     8 1   
     3     1    13 1   
     4     2     3 2   
     5     2     4 1   
     6     4     5 1   
     7     4    58 1   
     8     5     6 2   
     9     5     7 1   
    10     7     8 2   
    11     7    37 1   
    12     8    38 1   
    13     9    12 1   
    14     9    16 1   
    15     9    21 1   
    16     9    31 1   
    17    10    14 1   
    18    10    18 1   
    19    10    21 1   
    20    10    36 1   
    21    11    15 1   
    22    11    29 1   
    23    11    36 1   
    24    11    39 1   
    25    13    17 1   
    26    13    27 1   
    27    13    40 1   
    28    15    19 1   
    29    15    59 1   
    30    15    62 1   
    31    17    22 1   
    32    17    41 1   
    33    17    60 1   
    34    19    20 1   
    35    19    24 1   
    36    19    42 1   
    37    20    43 1   
    38    22    23 1   
    39    22    26 1   
    40    22    44 1   
    41    23    45 1   
    42    24    25 1   
    43    24    28 1   
    44    24    46 1   
    45    25    47 1   
    46    26    27 1   
    47    26    30 1   
    48    26    48 1   
    49    28    29 1   
    50    28    32 1   
    51    28    49 1   
    52    30    31 1   
    53    30    50 1   
    54    30    51 1   
    55    32    33 1   
    56    32    52 1   
    57    32    53 1   
    58    33    54 1   
    59    34    63 2   
    60    35    55 1   
    61    35    56 1   
    62    35    57 1   
    63    35    63 1   
    64    60    61 1   
    65    62    63 1   
    66    62    64 1   
@<TRIPOS>SUBSTRUCTURE
     1 ZKD         1 TEMP              0 ****  ****    0 ROOT
