@<TRIPOS>MOLECULE
ZKD
   64    66     1     0     0
SMALL
abcg2


@<TRIPOS>ATOM
      1 N1          29.3870     8.2190     2.2420 n          1 ZKD      -0.299000
      2 C2          29.1520     8.4060     3.5980 c          1 ZKD       0.625000
      3 O2          28.1500     8.9410     4.0430 o          1 ZKD      -0.567000
      4 N3          30.1550     7.9400     4.4170 ns         1 ZKD      -0.474500
      5 C4          31.3600     7.3450     4.0450 c          1 ZKD       0.594200
      6 O4          32.1610     6.9870     4.9010 o          1 ZKD      -0.571000
      7 C5          31.5240     7.2180     2.6180 cc         1 ZKD      -0.418200
      8 C6          30.5500     7.6490     1.7950 cd         1 ZKD       0.044600
      9 PA          28.4590     6.9250    -4.2840 p5         1 ZKD       1.465800
     10 PB          25.5700     6.2310    -4.2630 p5         1 ZKD       1.303800
     11 C1          23.9630     5.4430    -1.4730 c6         1 ZKD       0.284300
     12 O1A         28.7550     5.5410    -3.8160 o          1 ZKD      -0.831500
     13 C1B         28.3640     8.6430     1.2820 c5         1 ZKD       0.290700
     14 O1B         25.8350     5.1390    -5.2440 o          1 ZKD      -0.780000
     15 C9          23.1310     6.6930    -1.7590 c6         1 ZKD       0.060700
     16 O2A         28.8940     7.4090    -5.6230 o          1 ZKD      -0.831500
     17 C2B         28.7340     9.8930     0.4650 c5         1 ZKD       0.082300
     18 O2B         24.3670     7.1010    -4.4110 o          1 ZKD      -0.780000
     19 C3          23.7970     7.9120    -1.1250 c6         1 ZKD       0.164300
     20 O3          22.9720     9.0500    -1.3510 oh         1 ZKD      -0.658000
     21 O3A         26.8480     7.2250    -4.1460 os         1 ZKD      -0.701800
     22 C3B         27.9490     9.6650    -0.8390 c5         1 ZKD       0.129300
     23 O3B         26.6340    10.1890    -0.7270 oh         1 ZKD      -0.746000
     24 C10         24.0490     7.6850     0.3540 c6         1 ZKD       0.106300
     25 O9          24.8070     8.8010     0.8390 oh         1 ZKD      -0.765000
     26 C4B         28.0170     8.1490    -0.9990 c5         1 ZKD       0.100300
     27 O4B         28.1660     7.6060     0.3400 os         1 ZKD      -0.462000
     28 C11         24.8060     6.3710     0.5830 c6         1 ZKD       0.129300
     29 O5          24.1560     5.2800    -0.0810 os         1 ZKD      -0.458000
     30 C5B         29.1970     7.6660    -1.8340 c3         1 ZKD       0.213600
     31 O5B         29.0270     8.0060    -3.2090 os         1 ZKD      -0.596400
     32 C12         24.8570     5.9710     2.0480 c3         1 ZKD       0.158600
     33 O6          25.5350     7.0140     2.7590 oh         1 ZKD      -0.744000
     34 O7          19.5390     6.4780    -1.3810 o          1 ZKD      -0.677100
     35 C8          20.7090     7.2470    -3.3290 c3         1 ZKD      -0.175100
     36 S1          25.6420     5.3480    -2.2810 ss         1 ZKD      -0.522400
     37 H5          32.4250     6.7690     2.2310 ha         1 ZKD       0.218000
     38 H6          30.6300     7.5510     0.7240 h4         1 ZKD       0.232000
     39 H1          23.4040     4.5660    -1.7870 h2         1 ZKD       0.091700
     40 H1B         27.4650     8.8200     1.8680 h2         1 ZKD       0.099700
     41 H2B         29.8060     9.8870     0.2590 h1         1 ZKD       0.078700
     42 H3          24.7600     8.0490    -1.6240 h1         1 ZKD       0.091700
     43 HO3         23.4100     9.8150    -0.9580 ho         1 ZKD       0.446000
     44 H3B         28.4130    10.1740    -1.6820 h1         1 ZKD       0.123700
     45 HO3B        26.0640     9.6140    -0.1750 ho         1 ZKD       0.537000
     46 H4          23.0900     7.6500     0.8830 h1         1 ZKD       0.035700
     47 HO4         25.0860     8.5780     1.7450 ho         1 ZKD       0.532000
     48 H4B         27.0940     7.7550    -1.4210 h1         1 ZKD       0.129700
     49 H7          25.8240     6.4870     0.2020 h1         1 ZKD       0.114700
     50 H5B         30.1230     8.1420    -1.5030 h1         1 ZKD       0.037700
     51 H5BA        29.2960     6.5870    -1.7180 h1         1 ZKD       0.037700
     52 H9          23.8390     5.8450     2.4270 h1         1 ZKD       0.034700
     53 H6'A        25.3940     5.0240     2.1470 h1         1 ZKD       0.034700
     54 HO6         25.4160     6.8810     3.7070 ho         1 ZKD       0.503000
     55 H8          21.2720     8.1790    -3.3550 hc         1 ZKD       0.069033
     56 H8'A        21.2150     6.5370    -3.9870 hc         1 ZKD       0.069033
     57 H8'B        19.7000     7.4170    -3.6950 hc         1 ZKD       0.069033
     58 HN3         29.9960     8.0680     5.4090 hn         1 ZKD       0.326500
     59 H2          23.1030     6.8490    -2.8310 h1         1 ZKD       0.163700
     60 O8          28.4290    11.1050     1.1090 oh         1 ZKD      -0.710000
     61 HO2         27.5010    11.3000     0.8990 ho         1 ZKD       0.521000
     62 N2          21.7830     6.4650    -1.2680 ns         1 ZKD      -0.491900
     63 C7          20.6250     6.7050    -1.9230 c          1 ZKD       0.611100
     64 HN2         21.6750     6.1050    -0.3300 hn         1 ZKD       0.300500
@<TRIPOS>BOND
     1     1     2 1   
     2     1     8 1   
     3     1    13 1   
     4     2     3 2   
     5     2     4 1   
     6     4     5 1   
     7     4    58 1   
     8     5     6 2   
     9     5     7 1   
    10     7     8 2   
    11     7    37 1   
    12     8    38 1   
    13     9    12 1   
    14     9    16 1   
    15     9    21 1   
    16     9    31 1   
    17    10    14 1   
    18    10    18 1   
    19    10    21 1   
    20    10    36 1   
    21    11    15 1   
    22    11    29 1   
    23    11    36 1   
    24    11    39 1   
    25    13    17 1   
    26    13    27 1   
    27    13    40 1   
    28    15    19 1   
    29    15    59 1   
    30    15    62 1   
    31    17    22 1   
    32    17    41 1   
    33    17    60 1   
    34    19    20 1   
    35    19    24 1   
    36    19    42 1   
    37    20    43 1   
    38    22    23 1   
    39    22    26 1   
    40    22    44 1   
    41    23    45 1   
    42    24    25 1   
    43    24    28 1   
    44    24    46 1   
    45    25    47 1   
    46    26    27 1   
    47    26    30 1   
    48    26    48 1   
    49    28    29 1   
    50    28    32 1   
    51    28    49 1   
    52    30    31 1   
    53    30    50 1   
    54    30    51 1   
    55    32    33 1   
    56    32    52 1   
    57    32    53 1   
    58    33    54 1   
    59    34    63 2   
    60    35    55 1   
    61    35    56 1   
    62    35    57 1   
    63    35    63 1   
    64    60    61 1   
    65    62    63 1   
    66    62    64 1   
@<TRIPOS>SUBSTRUCTURE
     1 ZKD         1 TEMP              0 ****  ****    0 ROOT
