@<TRIPOS>MOLECULE
ZKH
   39    40     1     0     0
SMALL
abcg2


@<TRIPOS>ATOM
      1 C10        -18.3240    14.0220    24.9310 c6         1 ZKH       0.088000
      2 C13        -18.4920    15.1170    27.5890 c6         1 ZKH       0.085500
      3 C17        -22.0370    13.4930    27.4570 cc         1 ZKH      -0.100000
      4 C01        -16.9640    21.2790    25.4730 c3         1 ZKH       0.146900
      5 O02        -16.2310    20.0690    25.3860 os         1 ZKH      -0.476000
      6 C03        -15.6870    19.6680    26.6350 c3         1 ZKH       0.120600
      7 C04        -15.0100    18.3230    26.4580 c3         1 ZKH       0.109000
      8 N05        -15.9300    17.2580    26.0960 ns         1 ZKH      -0.503900
      9 C06        -16.6110    16.5610    27.0540 c          1 ZKH       0.646100
     10 O07        -16.3780    16.7240    28.2580 o          1 ZKH      -0.650100
     11 N08        -17.5270    15.6290    26.6190 n          1 ZKH      -0.423800
     12 C09        -17.9200    15.4640    25.2230 c6         1 ZKH       0.085500
     13 N11        -19.3310    13.5760    25.8840 n          1 ZKH      -0.410800
     14 C12        -18.8620    13.6800    27.2630 c6         1 ZKH       0.088000
     15 C14        -20.4690    12.9830    25.4490 c          1 ZKH       0.646700
     16 O15        -20.6390    12.6750    24.2630 o          1 ZKH      -0.605100
     17 C16        -21.5510    12.7240    26.4280 cd         1 ZKH      -0.285600
     18 C18        -23.1760    12.9240    28.0820 cc         1 ZKH      -0.142000
     19 C19        -23.5390    11.7300    27.5220 cd         1 ZKH      -0.244000
     20 S20        -22.5170    11.3020    26.2140 ss         1 ZKH       0.287000
     21 H102       -18.7300    13.9510    23.9270 h1         1 ZKH       0.065950
     22 H101       -17.4480    13.3700    25.0020 h1         1 ZKH       0.065950
     23 H131       -19.3970    15.7380    27.5820 h1         1 ZKH       0.056200
     24 H132       -18.0470    15.1680    28.5780 h1         1 ZKH       0.056200
     25 H171       -21.6120    14.4440    27.7420 ha         1 ZKH       0.135000
     26 H011       -17.3480    21.5010    24.4770 h1         1 ZKH       0.031367
     27 H012       -17.8040    21.1820    26.1710 h1         1 ZKH       0.031367
     28 H013       -16.3260    22.1060    25.8060 h1         1 ZKH       0.031367
     29 H032       -14.9550    20.4090    26.9840 h1         1 ZKH       0.038200
     30 H031       -16.4850    19.5960    27.3850 h1         1 ZKH       0.038200
     31 H042       -14.2570    18.4000    25.6710 h1         1 ZKH       0.070200
     32 H041       -14.5070    18.0490    27.3830 h1         1 ZKH       0.070200
     33 H051       -16.3100    17.3110    25.1670 hn         1 ZKH       0.313500
     34 H091       -18.7560    16.1320    24.9800 h1         1 ZKH       0.056200
     35 H092       -17.0870    15.6990    24.5670 h1         1 ZKH       0.056200
     36 H122       -17.9740    13.0460    27.3650 h1         1 ZKH       0.065950
     37 H121       -19.6160    13.3160    27.9510 h1         1 ZKH       0.065950
     38 H181       -23.7020    13.3830    28.9080 ha         1 ZKH       0.137000
     39 H191       -24.3500    11.0790    27.8080 h4         1 ZKH       0.153000
@<TRIPOS>BOND
     1     1    12 1   
     2     1    13 1   
     3     1    21 1   
     4     1    22 1   
     5     2    11 1   
     6     2    14 1   
     7     2    23 1   
     8     2    24 1   
     9     3    17 2   
    10     3    18 1   
    11     3    25 1   
    12     4     5 1   
    13     4    26 1   
    14     4    27 1   
    15     4    28 1   
    16     5     6 1   
    17     6     7 1   
    18     6    29 1   
    19     6    30 1   
    20     7     8 1   
    21     7    31 1   
    22     7    32 1   
    23     8     9 1   
    24     8    33 1   
    25     9    10 2   
    26     9    11 1   
    27    11    12 1   
    28    12    34 1   
    29    12    35 1   
    30    13    14 1   
    31    13    15 1   
    32    14    36 1   
    33    14    37 1   
    34    15    16 2   
    35    15    17 1   
    36    17    20 1   
    37    18    19 2   
    38    18    38 1   
    39    19    20 1   
    40    19    39 1   
@<TRIPOS>SUBSTRUCTURE
     1 ZKH         1 TEMP              0 ****  ****    0 ROOT
