@<TRIPOS>MOLECULE
ZKH
   39    40     1     0     0
SMALL
No Charge or Current Charge


@<TRIPOS>ATOM
      1 C10        -18.4110    14.0650    24.9180 c6         1 ZKH       0.088000
      2 C13        -18.2540    14.9770    27.6980 c6         1 ZKH       0.085500
      3 C17        -22.0440    13.4720    27.3540 cc         1 ZKH      -0.100000
      4 C01        -17.2930    21.2550    25.5880 c3         1 ZKH       0.146900
      5 O02        -16.5010    20.0620    25.4570 os         1 ZKH      -0.476000
      6 C03        -15.6880    19.7550    26.6070 c3         1 ZKH       0.120600
      7 C04        -14.9130    18.4460    26.3280 c3         1 ZKH       0.109000
      8 N05        -15.7950    17.2890    26.1160 ns         1 ZKH      -0.503900
      9 C06        -16.4590    16.6200    27.1140 c          1 ZKH       0.646100
     10 O07        -16.2980    16.9030    28.2920 o          1 ZKH      -0.650100
     11 N08        -17.3270    15.5890    26.7020 n          1 ZKH      -0.423800
     12 C09        -17.7080    15.4030    25.2660 c6         1 ZKH       0.085500
     13 N11        -19.4510    13.6640    25.8950 n          1 ZKH      -0.410800
     14 C12        -18.8870    13.6330    27.2700 c6         1 ZKH       0.088000
     15 C14        -20.4300    12.7220    25.5080 c          1 ZKH       0.646700
     16 O15        -20.3050    12.0610    24.4850 o          1 ZKH      -0.605100
     17 C16        -21.6310    12.5940    26.3750 cd         1 ZKH      -0.285600
     18 C18        -23.2790    13.1160    27.9480 cc         1 ZKH      -0.142000
     19 C19        -23.8350    11.9800    27.4220 cd         1 ZKH      -0.244000
     20 S20        -22.8230    11.3060    26.1300 ss         1 ZKH       0.287000
     21 H102       -18.8540    14.1510    23.9150 h1         1 ZKH       0.065950
     22 H101       -17.6530    13.2700    24.8690 h1         1 ZKH       0.065950
     23 H131       -19.0620    15.6950    27.8970 h1         1 ZKH       0.056200
     24 H132       -17.7240    14.8190    28.6480 h1         1 ZKH       0.056200
     25 H171       -21.5210    14.3800    27.6420 ha         1 ZKH       0.135000
     26 H011       -17.8830    21.4240    24.6780 h1         1 ZKH       0.031367
     27 H012       -17.9870    21.1710    26.4340 h1         1 ZKH       0.031367
     28 H013       -16.6530    22.1330    25.7490 h1         1 ZKH       0.031367
     29 H032       -14.9690    20.5630    26.7990 h1         1 ZKH       0.038200
     30 H031       -16.3100    19.6300    27.5030 h1         1 ZKH       0.038200
     31 H042       -14.2860    18.5820    25.4380 h1         1 ZKH       0.070200
     32 H041       -14.2470    18.2360    27.1750 h1         1 ZKH       0.070200
     33 H051       -15.9970    17.0100    25.1670 hn         1 ZKH       0.313500
     34 H091       -18.3810    16.2270    24.9880 h1         1 ZKH       0.056200
     35 H092       -16.8180    15.4820    24.6260 h1         1 ZKH       0.056200
     36 H122       -18.1000    12.8660    27.2950 h1         1 ZKH       0.065950
     37 H121       -19.6280    13.3230    28.0160 h1         1 ZKH       0.065950
     38 H181       -23.7360    13.7090    28.7350 ha         1 ZKH       0.137000
     39 H191       -24.7680    11.4990    27.6900 h4         1 ZKH       0.153000
@<TRIPOS>BOND
     1     1    12 1   
     2     1    13 1   
     3     1    21 1   
     4     1    22 1   
     5     2    11 1   
     6     2    14 1   
     7     2    23 1   
     8     2    24 1   
     9     3    17 2   
    10     3    18 1   
    11     3    25 1   
    12     4     5 1   
    13     4    26 1   
    14     4    27 1   
    15     4    28 1   
    16     5     6 1   
    17     6     7 1   
    18     6    29 1   
    19     6    30 1   
    20     7     8 1   
    21     7    31 1   
    22     7    32 1   
    23     8     9 1   
    24     8    33 1   
    25     9    10 2   
    26     9    11 1   
    27    11    12 1   
    28    12    34 1   
    29    12    35 1   
    30    13    14 1   
    31    13    15 1   
    32    14    36 1   
    33    14    37 1   
    34    15    16 2   
    35    15    17 1   
    36    17    20 1   
    37    18    19 2   
    38    18    38 1   
    39    19    20 1   
    40    19    39 1   
@<TRIPOS>SUBSTRUCTURE
     1 ZKH         1 TEMP              0 ****  ****    0 ROOT
