@<TRIPOS>MOLECULE
ZKJ
  100   105     1     0     0
SMALL
No Charge or Current Charge


@<TRIPOS>ATOM
      1 C10        -15.8680   -20.0870    15.1850 c          1 ZKJ       0.598100
      2 C17        -21.5830   -18.8860    13.7800 c3         1 ZKJ       0.129300
      3 C21        -12.6000   -15.9930    15.6960 ca         1 ZKJ       0.554300
      4 C24        -10.3900   -14.4320    15.3380 ca         1 ZKJ       0.167000
      5 C26        -12.0950   -15.6720    14.3940 ca         1 ZKJ       0.323300
      6 C28         -9.1010   -13.4210    17.6520 ca         1 ZKJ       0.164100
      7 C01        -13.4100   -19.6500    15.5910 c5         1 ZKJ       0.030700
      8 C02        -12.7100   -18.7980    16.6970 c5         1 ZKJ      -0.110400
      9 C03        -13.7330   -17.6530    16.9500 c5         1 ZKJ       0.165300
     10 C04        -15.0830   -18.4240    16.9490 c5         1 ZKJ       0.105000
     11 C06        -12.9250   -21.1280    15.7070 c          1 ZKJ       0.591100
     12 C09        -12.0350   -22.9550    14.2740 cx         1 ZKJ      -0.069600
     13 C11        -17.2970   -20.2250    15.7970 c3         1 ZKJ       0.064700
     14 C18        -17.5290   -21.6510    16.3660 c3         1 ZKJ      -0.088400
     15 C19        -16.5950   -22.0540    17.5370 c3         1 ZKJ      -0.080400
     16 C23        -10.9030   -14.7330    16.6450 ca         1 ZKJ       0.306000
     17 C27        -10.2520   -14.2230    17.7810 ca         1 ZKJ      -0.203000
     18 C29         -8.6010   -13.1290    16.3760 ca         1 ZKJ      -0.140000
     19 C30         -9.2400   -13.6290    15.2300 ca         1 ZKJ      -0.029000
     20 C32         -8.8580   -13.1420    20.0930 c3         1 ZKJ       0.145900
     21 C33        -12.7600   -16.1910    13.1260 c3         1 ZKJ      -0.139400
     22 C34        -11.0150   -23.6190    15.2200 c          1 ZKJ       0.678100
     23 C40         -8.1060   -21.3590    16.9430 cx         1 ZKJ      -0.399000
     24 C41         -6.6310   -21.1690    17.2490 cx         1 ZKJ      -0.078400
     25 C42         -7.1930   -20.6960    15.9260 cx         1 ZKJ      -0.078400
     26 C43         -9.1510   -20.5160    17.6870 c3         1 ZKJ      -0.043100
     27 C44        -13.2060   -23.7210    13.6720 cx         1 ZKJ      -0.034500
     28 C45        -13.5660   -25.0910    14.1420 c2         1 ZKJ      -0.189200
     29 C46        -14.5770   -25.3910    14.9800 c2         1 ZKJ      -0.192200
     30 C47        -15.5700   -24.4220    15.6070 c3         1 ZKJ      -0.047200
     31 C48        -15.5160   -24.4230    17.1520 c3         1 ZKJ      -0.074400
     32 C49        -11.9810   -23.4390    12.8380 cx         1 ZKJ      -0.095400
     33 C50        -16.6040   -23.5710    17.8660 c3         1 ZKJ      -0.066400
     34 C51        -21.5740   -17.3230    13.8130 c3         1 ZKJ       0.281000
     35 C55        -22.2360   -19.4690    12.5070 c3         1 ZKJ      -0.102100
     36 F52        -22.8320   -16.8330    13.7140 f          1 ZKJ      -0.109333
     37 F53        -21.0460   -16.8450    14.9630 f          1 ZKJ      -0.109333
     38 F54        -20.8530   -16.8130    12.7870 f          1 ZKJ      -0.109333
     39 N05        -14.8430   -19.4990    15.9560 n          1 ZKJ      -0.385800
     40 N08        -12.3540   -21.5560    14.5230 ns         1 ZKJ      -0.474900
     41 N13        -18.3020   -19.9330    14.7570 ns         1 ZKJ      -0.480900
     42 N22        -12.0080   -15.5030    16.8220 nb         1 ZKJ      -0.758000
     43 N25        -10.9890   -14.9000    14.2100 nb         1 ZKJ      -0.614000
     44 N35         -9.9870   -22.7960    15.5340 ns         1 ZKJ      -0.569300
     45 O07        -13.0070   -21.8430    16.6960 o          1 ZKJ      -0.570100
     46 O12        -15.6100   -20.5510    14.0790 o          1 ZKJ      -0.615100
     47 O15        -20.2270   -19.3960    13.8000 os         1 ZKJ      -0.449100
     48 O16        -20.0720   -19.3640    16.1000 o          1 ZKJ      -0.535000
     49 O20        -13.7540   -16.7610    15.7910 os         1 ZKJ      -0.444300
     50 O31         -8.4310   -12.9020    18.7400 os         1 ZKJ      -0.335100
     51 O36        -11.0890   -24.7680    15.6310 o          1 ZKJ      -0.543100
     52 O38         -7.7050   -23.8230    15.8650 o          1 ZKJ      -0.516000
     53 O39         -9.3010   -23.6400    17.8350 o          1 ZKJ      -0.516000
     54 S37         -8.7430   -23.0880    16.5950 s6         1 ZKJ       1.253800
     55 H171       -22.1540   -19.2520    14.6450 h1         1 ZKJ       0.101700
     56 H011       -13.2170   -19.2550    14.5850 h1         1 ZKJ       0.079700
     57 H022       -12.5690   -19.3720    17.6210 hc         1 ZKJ       0.076200
     58 H021       -11.7170   -18.4490    16.3940 hc         1 ZKJ       0.076200
     59 H031       -13.5800   -17.0980    17.8870 h1         1 ZKJ       0.090700
     60 H041       -15.9170   -17.7690    16.6670 h1         1 ZKJ       0.074200
     61 H042       -15.2960   -18.8520    17.9380 h1         1 ZKJ       0.074200
     62 H111       -17.4150   -19.4950    16.6060 h1         1 ZKJ       0.074700
     63 H181       -18.5660   -21.7340    16.7140 hc         1 ZKJ       0.058700
     64 H182       -17.4320   -22.3670    15.5430 hc         1 ZKJ       0.058700
     65 H192       -15.5640   -21.7450    17.3380 hc         1 ZKJ       0.049200
     66 H191       -16.9090   -21.4970    18.4280 hc         1 ZKJ       0.049200
     67 H271       -10.6600   -14.4650    18.7560 ha         1 ZKJ       0.133000
     68 H291        -7.7130   -12.5100    16.2750 ha         1 ZKJ       0.135000
     69 H301        -8.8410   -13.3930    14.2460 ha         1 ZKJ       0.136000
     70 H321        -8.1860   -12.6380    20.7990 h1         1 ZKJ       0.044367
     71 H323        -9.8720   -12.7560    20.2570 h1         1 ZKJ       0.044367
     72 H322        -8.8470   -14.2150    20.3210 h1         1 ZKJ       0.044367
     73 H331       -12.3000   -15.7760    12.2210 hc         1 ZKJ       0.062033
     74 H332       -12.6850   -17.2830    13.0680 hc         1 ZKJ       0.062033
     75 H333       -13.8240   -15.9260    13.1080 hc         1 ZKJ       0.062033
     76 H412        -5.9800   -22.0400    17.2370 hc         1 ZKJ       0.087950
     77 H411        -6.3500   -20.4100    17.9770 hc         1 ZKJ       0.087950
     78 H421        -6.9130   -21.2530    15.0340 hc         1 ZKJ       0.087950
     79 H422        -7.2840   -19.6230    15.7730 hc         1 ZKJ       0.087950
     80 H431        -8.7840   -19.5000    17.8770 hc         1 ZKJ       0.054033
     81 H432       -10.0790   -20.4250    17.1110 hc         1 ZKJ       0.054033
     82 H433        -9.4010   -20.9590    18.6590 hc         1 ZKJ       0.054033
     83 H441       -14.0800   -23.1320    13.4000 hc         1 ZKJ       0.100700
     84 H451       -12.9320   -25.8950    13.7600 ha         1 ZKJ       0.192000
     85 H461       -14.7480   -26.4330    15.2580 ha         1 ZKJ       0.168000
     86 H472       -15.3880   -23.4010    15.2540 hc         1 ZKJ       0.046200
     87 H471       -16.5850   -24.6880    15.2860 hc         1 ZKJ       0.046200
     88 H482       -15.6090   -25.4570    17.5040 hc         1 ZKJ       0.047700
     89 H481       -14.5250   -24.0790    17.4710 hc         1 ZKJ       0.047700
     90 H492       -11.3250   -24.2740    12.6020 hc         1 ZKJ       0.088700
     91 H491       -12.0670   -22.6990    12.0450 hc         1 ZKJ       0.088700
     92 H502       -17.5960   -23.9900    17.6580 hc         1 ZKJ       0.037700
     93 H501       -16.4500   -23.6840    18.9470 hc         1 ZKJ       0.037700
     94 H551       -22.2110   -20.5650    12.5320 hc         1 ZKJ       0.063033
     95 H553       -23.2840   -19.1580    12.4290 hc         1 ZKJ       0.063033
     96 H552       -21.7090   -19.1330    11.6060 hc         1 ZKJ       0.063033
     97 H081       -12.3400   -20.8940    13.7550 hn         1 ZKJ       0.324500
     98 H131       -18.0460   -20.0450    13.7830 hn         1 ZKJ       0.343500
     99 H351        -9.9650   -21.8670    15.1550 hn         1 ZKJ       0.337500
    100 C14        -19.5870   -19.5420    14.9950 c          1 ZKJ       0.642100
@<TRIPOS>BOND
     1     1    13 1   
     2     1    39 1   
     3     1    46 2   
     4     2    34 1   
     5     2    35 1   
     6     2    47 1   
     7     2    55 1   
     8     3     5 ar  
     9     3    42 ar  
    10     3    49 1   
    11     4    16 ar  
    12     4    19 ar  
    13     4    43 ar  
    14     5    21 1   
    15     5    43 ar  
    16     6    17 ar  
    17     6    18 ar  
    18     6    50 1   
    19     7     8 1   
    20     7    11 1   
    21     7    39 1   
    22     7    56 1   
    23     8     9 1   
    24     8    57 1   
    25     8    58 1   
    26     9    10 1   
    27     9    49 1   
    28     9    59 1   
    29    10    39 1   
    30    10    60 1   
    31    10    61 1   
    32    11    40 1   
    33    11    45 2   
    34    12    22 1   
    35    12    27 1   
    36    12    32 1   
    37    12    40 1   
    38    13    14 1   
    39    13    41 1   
    40    13    62 1   
    41    14    15 1   
    42    14    63 1   
    43    14    64 1   
    44    15    33 1   
    45    15    65 1   
    46    15    66 1   
    47    16    17 ar  
    48    16    42 ar  
    49    17    67 1   
    50    18    19 ar  
    51    18    68 1   
    52    19    69 1   
    53    20    50 1   
    54    20    70 1   
    55    20    71 1   
    56    20    72 1   
    57    21    73 1   
    58    21    74 1   
    59    21    75 1   
    60    22    44 1   
    61    22    51 2   
    62    23    24 1   
    63    23    25 1   
    64    23    26 1   
    65    23    54 1   
    66    24    25 1   
    67    24    76 1   
    68    24    77 1   
    69    25    78 1   
    70    25    79 1   
    71    26    80 1   
    72    26    81 1   
    73    26    82 1   
    74    27    28 1   
    75    27    32 1   
    76    27    83 1   
    77    28    29 2   
    78    28    84 1   
    79    29    30 1   
    80    29    85 1   
    81    30    31 1   
    82    30    86 1   
    83    30    87 1   
    84    31    33 1   
    85    31    88 1   
    86    31    89 1   
    87    32    90 1   
    88    32    91 1   
    89    33    92 1   
    90    33    93 1   
    91    34    36 1   
    92    34    37 1   
    93    34    38 1   
    94    35    94 1   
    95    35    95 1   
    96    35    96 1   
    97    40    97 1   
    98    41    98 1   
    99    41   100 1   
   100    44    54 1   
   101    44    99 1   
   102    47   100 1   
   103    48   100 2   
   104    52    54 2   
   105    53    54 2   
@<TRIPOS>SUBSTRUCTURE
     1 ZKJ         1 TEMP              0 ****  ****    0 ROOT
