@<TRIPOS>MOLECULE
ZKJ
  100   105     1     0     0
SMALL
bcc


@<TRIPOS>ATOM
      1 C10        -15.7960   -20.5670    15.5020 c          1 ZKJ       0.665100
      2 C17        -19.3090   -17.6180    13.0920 c3         1 ZKJ       0.106100
      3 C21        -13.4270   -16.0250    15.9780 ca         1 ZKJ       0.554300
      4 C24        -12.0980   -13.7820    15.4520 ca         1 ZKJ       0.232300
      5 C26        -13.8490   -15.1520    14.9130 ca         1 ZKJ       0.323300
      6 C28         -9.8660   -13.1940    17.0350 ca         1 ZKJ       0.164100
      7 C01        -13.4880   -19.8700    15.5970 c5         1 ZKJ       0.030700
      8 C02        -12.7150   -18.9890    16.5850 c5         1 ZKJ      -0.110400
      9 C03        -13.7920   -18.0700    17.1420 c5         1 ZKJ       0.142100
     10 C04        -14.9740   -19.0050    17.2970 c5         1 ZKJ       0.105000
     11 C06        -12.9540   -21.2950    15.5580 c          1 ZKJ       0.658100
     12 C09        -12.0080   -23.0350    14.1910 cx         1 ZKJ      -0.069600
     13 C11        -17.1930   -20.6580    16.1240 c3         1 ZKJ       0.064700
     14 C18        -17.4490   -22.0990    16.5710 c3         1 ZKJ      -0.088400
     15 C19        -16.5570   -22.5240    17.7350 c3         1 ZKJ      -0.080400
     16 C23        -11.6960   -14.6540    16.4810 ca         1 ZKJ       0.371300
     17 C27        -10.5720   -14.3530    17.2720 ca         1 ZKJ      -0.286300
     18 C29        -10.2680   -12.3150    16.0000 ca         1 ZKJ      -0.158000
     19 C30        -11.3570   -12.6050    15.2280 ca         1 ZKJ      -0.112300
     20 C32         -8.3310   -13.6310    18.7830 c3         1 ZKJ       0.122700
     21 C33        -15.0370   -15.4920    14.0750 c3         1 ZKJ      -0.139400
     22 C34        -10.7600   -23.5640    14.8200 c          1 ZKJ       0.745100
     23 C40         -8.4830   -21.5200    17.3010 cx         1 ZKJ      -0.288200
     24 C41         -7.1090   -20.9630    17.5380 cx         1 ZKJ      -0.078400
     25 C42         -8.0680   -20.2220    16.6690 cx         1 ZKJ      -0.078400
     26 C43         -9.5010   -21.5510    18.4120 c3         1 ZKJ      -0.043100
     27 C44        -13.2250   -23.9530    14.0270 cx         1 ZKJ      -0.034500
     28 C45        -13.3410   -25.3090    14.5950 c2         1 ZKJ      -0.139200
     29 C46        -14.3370   -25.7080    15.3910 c2         1 ZKJ      -0.142200
     30 C47        -15.4750   -24.8900    15.9170 c3         1 ZKJ      -0.047200
     31 C48        -15.4910   -24.8520    17.4470 c3         1 ZKJ      -0.074400
     32 C49        -12.3780   -23.6140    12.8520 cx         1 ZKJ      -0.095400
     33 C50        -16.6220   -24.0240    18.0570 c3         1 ZKJ      -0.066400
     34 C51        -18.5230   -17.6100    11.7880 c3         1 ZKJ       0.644900
     35 C55        -20.7920   -17.3960    12.8800 c3         1 ZKJ      -0.102100
     36 F52        -18.5760   -16.4020    11.2150 f          1 ZKJ      -0.230633
     37 F53        -17.2310   -17.9020    11.9840 f          1 ZKJ      -0.230633
     38 F54        -18.9910   -18.4950    10.9010 f          1 ZKJ      -0.230633
     39 N05        -14.8400   -19.8770    16.1390 n          1 ZKJ      -0.452800
     40 N08        -12.3140   -21.6630    14.4240 ns         1 ZKJ      -0.541900
     41 N13        -18.1770   -20.2730    15.1390 ns         1 ZKJ      -0.547900
     42 N22        -12.3950   -15.7930    16.7190 nb         1 ZKJ      -0.758000
     43 N25        -13.1790   -14.0650    14.6820 nb         1 ZKJ      -0.614000
     44 N35        -10.0320   -22.6160    15.4930 ns         1 ZKJ      -0.636300
     45 O07        -13.0710   -22.0400    16.5110 o          1 ZKJ      -0.570100
     46 O12        -15.5600   -21.1590    14.4570 o          1 ZKJ      -0.615100
     47 O15        -19.1280   -18.8900    13.6940 os         1 ZKJ      -0.425900
     48 O16        -17.5090   -18.1150    15.0750 o          1 ZKJ      -0.584000
     49 O20        -14.1820   -17.1030    16.1650 os         1 ZKJ      -0.421100
     50 O31         -8.7870   -12.8050    17.7300 os         1 ZKJ      -0.311900
     51 O36        -10.4100   -24.7190    14.7320 o          1 ZKJ      -0.543100
     52 O38         -7.5000   -22.8640    15.2330 o          1 ZKJ      -0.586800
     53 O39         -8.6840   -24.1350    17.0270 o          1 ZKJ      -0.586800
     54 S37         -8.5500   -22.9280    16.2340 s6         1 ZKJ       1.284600
     55 H171       -18.9000   -16.8260    13.7250 h1         1 ZKJ       0.101700
     56 H011       -13.4840   -19.4270    14.5970 h1         1 ZKJ       0.079700
     57 H022       -12.3140   -19.5840    17.4070 hc         1 ZKJ       0.076200
     58 H021       -11.8850   -18.4620    16.1160 hc         1 ZKJ       0.076200
     59 H031       -13.5120   -17.5850    18.0770 h1         1 ZKJ       0.090700
     60 H041       -15.9210   -18.4690    17.2990 h1         1 ZKJ       0.074200
     61 H042       -14.8860   -19.5620    18.2330 h1         1 ZKJ       0.074200
     62 H111       -17.2890   -20.0070    16.9950 h1         1 ZKJ       0.074700
     63 H181       -18.4960   -22.1810    16.8760 hc         1 ZKJ       0.058700
     64 H182       -17.3210   -22.7650    15.7140 hc         1 ZKJ       0.058700
     65 H192       -15.5150   -22.2510    17.5430 hc         1 ZKJ       0.049200
     66 H191       -16.8540   -21.9460    18.6140 hc         1 ZKJ       0.049200
     67 H271       -10.3010   -15.0520    18.0510 ha         1 ZKJ       0.151000
     68 H291        -9.6980   -11.4090    15.8300 ha         1 ZKJ       0.153000
     69 H301       -11.6670   -11.9350    14.4360 ha         1 ZKJ       0.154000
     70 H321        -7.4590   -13.1390    19.2060 h1         1 ZKJ       0.044367
     71 H323        -9.0870   -13.7460    19.5640 h1         1 ZKJ       0.044367
     72 H322        -8.0410   -14.6220    18.4260 h1         1 ZKJ       0.044367
     73 H331       -15.1740   -14.7350    13.3070 hc         1 ZKJ       0.062033
     74 H332       -14.9190   -16.4620    13.5900 hc         1 ZKJ       0.062033
     75 H333       -15.9470   -15.5460    14.6750 hc         1 ZKJ       0.062033
     76 H412        -6.2580   -21.4340    17.0650 hc         1 ZKJ       0.087950
     77 H411        -6.9230   -20.6030    18.5410 hc         1 ZKJ       0.087950
     78 H421        -7.8670   -20.1910    15.6060 hc         1 ZKJ       0.087950
     79 H422        -8.5570   -19.3380    17.0600 hc         1 ZKJ       0.087950
     80 H431        -9.3960   -20.6490    19.0140 hc         1 ZKJ       0.054033
     81 H432       -10.5210   -21.5770    18.0300 hc         1 ZKJ       0.054033
     82 H433        -9.3520   -22.4080    19.0670 hc         1 ZKJ       0.054033
     83 H441       -14.1310   -23.3630    14.0830 hc         1 ZKJ       0.100700
     84 H451       -12.5850   -26.0320    14.3170 ha         1 ZKJ       0.142000
     85 H461       -14.3260   -26.7460    15.7140 ha         1 ZKJ       0.118000
     86 H472       -15.4380   -23.8740    15.5250 hc         1 ZKJ       0.046200
     87 H471       -16.4200   -25.3220    15.5690 hc         1 ZKJ       0.046200
     88 H482       -15.5550   -25.8760    17.8260 hc         1 ZKJ       0.047700
     89 H481       -14.5340   -24.4560    17.8000 hc         1 ZKJ       0.047700
     90 H492       -11.7160   -24.3740    12.4560 hc         1 ZKJ       0.088700
     91 H491       -12.7720   -22.9260    12.1150 hc         1 ZKJ       0.088700
     92 H502       -17.5900   -24.4330    17.7480 hc         1 ZKJ       0.037700
     93 H501       -16.5790   -24.1550    19.1400 hc         1 ZKJ       0.037700
     94 H551       -21.2920   -17.3720    13.8460 hc         1 ZKJ       0.063033
     95 H553       -20.9740   -16.4380    12.3940 hc         1 ZKJ       0.063033
     96 H552       -21.2430   -18.1830    12.2770 hc         1 ZKJ       0.063033
     97 H081       -12.2960   -21.0280    13.6390 hn         1 ZKJ       0.324500
     98 H131       -18.7230   -20.9910    14.6860 hn         1 ZKJ       0.343500
     99 H351       -10.2670   -21.6380    15.3610 hn         1 ZKJ       0.337500
    100 C14        -18.2060   -19.0180    14.6670 c          1 ZKJ       0.758100
@<TRIPOS>BOND
     1     1    13 1   
     2     1    39 1   
     3     1    46 2   
     4     2    34 1   
     5     2    35 1   
     6     2    47 1   
     7     2    55 1   
     8     3     5 ar  
     9     3    42 ar  
    10     3    49 1   
    11     4    16 ar  
    12     4    19 ar  
    13     4    43 ar  
    14     5    21 1   
    15     5    43 ar  
    16     6    17 ar  
    17     6    18 ar  
    18     6    50 1   
    19     7     8 1   
    20     7    11 1   
    21     7    39 1   
    22     7    56 1   
    23     8     9 1   
    24     8    57 1   
    25     8    58 1   
    26     9    10 1   
    27     9    49 1   
    28     9    59 1   
    29    10    39 1   
    30    10    60 1   
    31    10    61 1   
    32    11    40 1   
    33    11    45 2   
    34    12    22 1   
    35    12    27 1   
    36    12    32 1   
    37    12    40 1   
    38    13    14 1   
    39    13    41 1   
    40    13    62 1   
    41    14    15 1   
    42    14    63 1   
    43    14    64 1   
    44    15    33 1   
    45    15    65 1   
    46    15    66 1   
    47    16    17 ar  
    48    16    42 ar  
    49    17    67 1   
    50    18    19 ar  
    51    18    68 1   
    52    19    69 1   
    53    20    50 1   
    54    20    70 1   
    55    20    71 1   
    56    20    72 1   
    57    21    73 1   
    58    21    74 1   
    59    21    75 1   
    60    22    44 1   
    61    22    51 2   
    62    23    24 1   
    63    23    25 1   
    64    23    26 1   
    65    23    54 1   
    66    24    25 1   
    67    24    76 1   
    68    24    77 1   
    69    25    78 1   
    70    25    79 1   
    71    26    80 1   
    72    26    81 1   
    73    26    82 1   
    74    27    28 1   
    75    27    32 1   
    76    27    83 1   
    77    28    29 2   
    78    28    84 1   
    79    29    30 1   
    80    29    85 1   
    81    30    31 1   
    82    30    86 1   
    83    30    87 1   
    84    31    33 1   
    85    31    88 1   
    86    31    89 1   
    87    32    90 1   
    88    32    91 1   
    89    33    92 1   
    90    33    93 1   
    91    34    36 1   
    92    34    37 1   
    93    34    38 1   
    94    35    94 1   
    95    35    95 1   
    96    35    96 1   
    97    40    97 1   
    98    41    98 1   
    99    41   100 1   
   100    44    54 1   
   101    44    99 1   
   102    47   100 1   
   103    48   100 2   
   104    52    54 2   
   105    53    54 2   
@<TRIPOS>SUBSTRUCTURE
     1 ZKJ         1 TEMP              0 ****  ****    0 ROOT
