@<TRIPOS>MOLECULE
ZKM
  129   129     1     0     0
SMALL
abcg2


@<TRIPOS>ATOM
      1 C02         20.6770     6.4730    14.0970 c6         1 ZKM       0.155300
      2 C03         21.3880     5.2010    13.6570 c6         1 ZKM       0.166300
      3 C09         22.8540     5.5220    13.2890 c6         1 ZKM       0.137300
      4 C11         23.4590     6.5150    14.3160 c6         1 ZKM       0.136300
      5 C12         23.8700     7.8960    13.8010 c3         1 ZKM       0.161600
      6 C15         21.3280     6.9500    15.3960 c6         1 ZKM       0.379300
      7 C18         22.2440     8.9270    17.6380 c3         1 ZKM       0.098700
      8 C21         24.8340     7.5890    17.9040 c3         1 ZKM      -0.159400
      9 C22         26.1160     6.9560    18.4240 c3         1 ZKM      -0.057400
     10 C23         26.4170     7.2250    19.8940 c3         1 ZKM      -0.077400
     11 C24         26.6040     8.6990    20.2400 c3         1 ZKM      -0.074400
     12 C25         27.1810     8.8910    21.6380 c3         1 ZKM      -0.077400
     13 C26         27.3960    10.3490    22.0260 c3         1 ZKM      -0.073400
     14 C27         28.1410    10.5000    23.3480 c3         1 ZKM      -0.075400
     15 C28         28.3690    11.9480    23.7620 c3         1 ZKM      -0.074400
     16 C29         29.2200    12.0780    25.0180 c3         1 ZKM      -0.075400
     17 C30         29.4630    13.5200    25.4470 c3         1 ZKM      -0.076400
     18 C31         30.4360    13.6320    26.6160 c3         1 ZKM      -0.072400
     19 C32         30.6340    15.0470    27.1500 c3         1 ZKM      -0.072400
     20 C33         31.1840    16.0400    26.1320 c3         1 ZKM      -0.078400
     21 C34         31.5410    17.3860    26.7510 c3         1 ZKM      -0.078400
     22 C35         32.0270    18.4000    25.7250 c3         1 ZKM      -0.088100
     23 C37         22.2200    10.0520    18.6840 c3         1 ZKM       0.185500
     24 C39         22.4110    11.4110    18.0740 c2         1 ZKM      -0.270200
     25 C40         23.5870    12.0310    18.0950 c2         1 ZKM      -0.198200
     26 C41         23.9100    13.3600    17.4920 c3         1 ZKM      -0.045200
     27 C42         24.6140    14.2800    18.4920 c3         1 ZKM      -0.072400
     28 C43         23.7130    14.7290    19.6340 c3         1 ZKM      -0.075400
     29 C44         24.4510    15.4650    20.7490 c3         1 ZKM      -0.073400
     30 C45         25.3080    14.5420    21.6130 c3         1 ZKM      -0.075400
     31 C46         25.9810    15.2410    22.7890 c3         1 ZKM      -0.076400
     32 C47         27.0700    16.2300    22.3840 c3         1 ZKM      -0.073400
     33 C48         27.8720    16.7690    23.5660 c3         1 ZKM      -0.076400
     34 C49         27.0780    17.6570    24.5170 c3         1 ZKM      -0.076400
     35 C50         27.8800    18.0750    25.7410 c3         1 ZKM      -0.078400
     36 C51         27.1130    19.0130    26.6660 c3         1 ZKM      -0.073400
     37 C52         27.8820    19.4190    27.9220 c3         1 ZKM      -0.073400
     38 C53         28.1080    18.2740    28.9010 c3         1 ZKM      -0.091100
     39 N19         22.4190     7.6430    18.2830 ns         1 ZKM      -0.505900
     40 O01         19.3140     6.2840    14.3770 oh         1 ZKM      -0.732000
     41 O04         20.6480     4.6950    12.5570 os         1 ZKM      -0.604700
     42 O10         22.9720     6.0370    11.9930 oh         1 ZKM      -0.731000
     43 O13         22.8700     8.7230    13.2690 oh         1 ZKM      -0.708000
     44 O14         22.6630     6.5620    15.4940 os         1 ZKM      -0.482000
     45 O16         21.1660     8.3380    15.4890 os         1 ZKM      -0.498000
     46 O36         23.5760     5.8670    19.0060 o          1 ZKM      -0.609100
     47 O38         21.0030     9.9370    19.3880 oh         1 ZKM      -0.654000
     48 S05         20.9880     3.1990    11.9550 s6         1 ZKM       1.498300
     49 H1          20.8160     7.2280    13.3130 h1         1 ZKM       0.074700
     50 H2          21.3720     4.4770    14.4810 h1         1 ZKM       0.071700
     51 H3          23.4240     4.5880    13.3700 h1         1 ZKM       0.051700
     52 H4          24.4000     6.0850    14.6720 h1         1 ZKM       0.061700
     53 H5          24.3920     8.3920    14.6310 h1         1 ZKM       0.030700
     54 H6          24.6190     7.7470    13.0210 h1         1 ZKM       0.030700
     55 H7          20.8200     6.4620    16.2380 h2         1 ZKM       0.079700
     56 H8          20.6750     9.9450    16.5640 h1         1 ZKM       0.057700
     57 H9          20.1610     8.4280    17.2930 h1         1 ZKM       0.057700
     58 H10         23.0960     9.1140    16.9840 h1         1 ZKM       0.075700
     59 H11         24.7940     7.4940    16.8140 hc         1 ZKM       0.058700
     60 H12         24.8440     8.6640    18.0960 hc         1 ZKM       0.058700
     61 H13         26.0910     5.8800    18.2450 hc         1 ZKM       0.047700
     62 H14         26.9440     7.3430    17.8240 hc         1 ZKM       0.047700
     63 H15         25.6340     6.7960    20.5250 hc         1 ZKM       0.045700
     64 H16         27.3350     6.6890    20.1540 hc         1 ZKM       0.045700
     65 H17         27.2770     9.1630    19.5090 hc         1 ZKM       0.032200
     66 H18         25.6530     9.2390    20.1610 hc         1 ZKM       0.032200
     67 H19         26.5270     8.4110    22.3740 hc         1 ZKM       0.037700
     68 H20         28.1390     8.3610    21.6960 hc         1 ZKM       0.037700
     69 H21         27.9620    10.8540    21.2360 hc         1 ZKM       0.035200
     70 H22         26.4300    10.8630    22.0840 hc         1 ZKM       0.035200
     71 H23         27.5920     9.9780    24.1390 hc         1 ZKM       0.037200
     72 H24         29.1090     9.9930    23.2680 hc         1 ZKM       0.037200
     73 H25         28.8550    12.4880    22.9410 hc         1 ZKM       0.036700
     74 H26         27.4030    12.4400    23.9160 hc         1 ZKM       0.036700
     75 H27         28.7480    11.5290    25.8400 hc         1 ZKM       0.036700
     76 H28         30.1860    11.5900    24.8460 hc         1 ZKM       0.036700
     77 H29         29.8440    14.0850    24.5900 hc         1 ZKM       0.038200
     78 H30         28.5110    13.9910    25.7170 hc         1 ZKM       0.038200
     79 H31         30.0840    12.9930    27.4320 hc         1 ZKM       0.036700
     80 H32         31.4060    13.2220    26.3120 hc         1 ZKM       0.036700
     81 H33         31.3120    15.0060    28.0090 hc         1 ZKM       0.035700
     82 H34         29.6810    15.4260    27.5380 hc         1 ZKM       0.035700
     83 H35         30.4530    16.1970    25.3320 hc         1 ZKM       0.039200
     84 H36         32.0740    15.6180    25.6500 hc         1 ZKM       0.039200
     85 H37         32.3100    17.2370    27.5160 hc         1 ZKM       0.036700
     86 H38         30.6690    17.7870    27.2760 hc         1 ZKM       0.036700
     87 H39         32.2830    19.3520    26.1910 hc         1 ZKM       0.031033
     88 H40         32.9140    18.0400    25.2010 hc         1 ZKM       0.031033
     89 H41         31.2580    18.5940    24.9740 hc         1 ZKM       0.031033
     90 H42         23.0750     9.8670    19.3530 h1         1 ZKM       0.035700
     91 H43         21.5540    11.8740    17.5900 ha         1 ZKM       0.184000
     92 H44         24.4180    11.5390    18.6020 ha         1 ZKM       0.164000
     93 H45         24.5730    13.2050    16.6350 hc         1 ZKM       0.050700
     94 H46         23.0040    13.8350    17.1050 hc         1 ZKM       0.050700
     95 H47         25.4960    13.7570    18.8780 hc         1 ZKM       0.038700
     96 H48         24.9930    15.1600    17.9660 hc         1 ZKM       0.038700
     97 H49         22.9280    15.3710    19.2230 hc         1 ZKM       0.039700
     98 H50         23.1950    13.8630    20.0620 hc         1 ZKM       0.039700
     99 H51         25.0660    16.2610    20.3160 hc         1 ZKM       0.036700
    100 H52         23.7230    15.9650    21.3950 hc         1 ZKM       0.036700
    101 H53         24.6700    13.7380    21.9960 hc         1 ZKM       0.039200
    102 H54         26.0750    14.0530    21.0030 hc         1 ZKM       0.039200
    103 H55         25.2190    15.7430    23.3930 hc         1 ZKM       0.037700
    104 H56         26.4300    14.4830    23.4410 hc         1 ZKM       0.037700
    105 H57         27.7550    15.7270    21.6920 hc         1 ZKM       0.038200
    106 H58         26.6370    17.0660    21.8260 hc         1 ZKM       0.038200
    107 H59         28.2900    15.9250    24.1250 hc         1 ZKM       0.037200
    108 H60         28.7310    17.3370    23.1930 hc         1 ZKM       0.037200
    109 H61         26.7390    18.5480    23.9770 hc         1 ZKM       0.037200
    110 H62         26.1710    17.1420    24.8490 hc         1 ZKM       0.037200
    111 H63         28.1870    17.1760    26.2860 hc         1 ZKM       0.038700
    112 H64         28.8060    18.5660    25.4230 hc         1 ZKM       0.038700
    113 H65         26.8400    19.9140    26.1080 hc         1 ZKM       0.036200
    114 H66         26.1680    18.5420    26.9600 hc         1 ZKM       0.036200
    115 H67         28.8450    19.8520    27.6330 hc         1 ZKM       0.035200
    116 H68         27.3350    20.2170    28.4310 hc         1 ZKM       0.035200
    117 H69         28.6340    18.6150    29.7940 hc         1 ZKM       0.031033
    118 H70         27.1590    17.8410    29.2220 hc         1 ZKM       0.031033
    119 H71         28.7030    17.4710    28.4630 hc         1 ZKM       0.031033
    120 H72         21.5950     7.2130    18.6810 hn         1 ZKM       0.321500
    121 H73         18.8580     6.1030    13.5500 ho         1 ZKM       0.533000
    122 H74         22.8300     5.2900    11.3930 ho         1 ZKM       0.557000
    123 H75         22.2970     9.0020    13.9940 ho         1 ZKM       0.511000
    124 H76         20.9930    10.5900    20.0940 ho         1 ZKM       0.442000
    125 C17         20.9860     8.9200    16.7660 c3         1 ZKM       0.171600
    126 C20         23.5690     6.9570    18.4500 c          1 ZKM       0.619100
    127 O06         21.1650     2.3350    13.1210 o          1 ZKM      -0.703867
    128 O07         22.2170     3.3830    11.1630 o          1 ZKM      -0.703867
    129 O08         19.7960     2.9430    11.1580 o          1 ZKM      -0.703867
@<TRIPOS>BOND
     1     1     2 1   
     2     1     6 1   
     3     1    40 1   
     4     1    49 1   
     5     2     3 1   
     6     2    41 1   
     7     2    50 1   
     8     3     4 1   
     9     3    42 1   
    10     3    51 1   
    11     4     5 1   
    12     4    44 1   
    13     4    52 1   
    14     5    43 1   
    15     5    53 1   
    16     5    54 1   
    17     6    44 1   
    18     6    45 1   
    19     6    55 1   
    20     7    23 1   
    21     7    39 1   
    22     7    58 1   
    23     7   125 1   
    24     8     9 1   
    25     8    59 1   
    26     8    60 1   
    27     8   126 1   
    28     9    10 1   
    29     9    61 1   
    30     9    62 1   
    31    10    11 1   
    32    10    63 1   
    33    10    64 1   
    34    11    12 1   
    35    11    65 1   
    36    11    66 1   
    37    12    13 1   
    38    12    67 1   
    39    12    68 1   
    40    13    14 1   
    41    13    69 1   
    42    13    70 1   
    43    14    15 1   
    44    14    71 1   
    45    14    72 1   
    46    15    16 1   
    47    15    73 1   
    48    15    74 1   
    49    16    17 1   
    50    16    75 1   
    51    16    76 1   
    52    17    18 1   
    53    17    77 1   
    54    17    78 1   
    55    18    19 1   
    56    18    79 1   
    57    18    80 1   
    58    19    20 1   
    59    19    81 1   
    60    19    82 1   
    61    20    21 1   
    62    20    83 1   
    63    20    84 1   
    64    21    22 1   
    65    21    85 1   
    66    21    86 1   
    67    22    87 1   
    68    22    88 1   
    69    22    89 1   
    70    23    24 1   
    71    23    47 1   
    72    23    90 1   
    73    24    25 2   
    74    24    91 1   
    75    25    26 1   
    76    25    92 1   
    77    26    27 1   
    78    26    93 1   
    79    26    94 1   
    80    27    28 1   
    81    27    95 1   
    82    27    96 1   
    83    28    29 1   
    84    28    97 1   
    85    28    98 1   
    86    29    30 1   
    87    29    99 1   
    88    29   100 1   
    89    30    31 1   
    90    30   101 1   
    91    30   102 1   
    92    31    32 1   
    93    31   103 1   
    94    31   104 1   
    95    32    33 1   
    96    32   105 1   
    97    32   106 1   
    98    33    34 1   
    99    33   107 1   
   100    33   108 1   
   101    34    35 1   
   102    34   109 1   
   103    34   110 1   
   104    35    36 1   
   105    35   111 1   
   106    35   112 1   
   107    36    37 1   
   108    36   113 1   
   109    36   114 1   
   110    37    38 1   
   111    37   115 1   
   112    37   116 1   
   113    38   117 1   
   114    38   118 1   
   115    38   119 1   
   116    39   120 1   
   117    39   126 1   
   118    40   121 1   
   119    41    48 1   
   120    42   122 1   
   121    43   123 1   
   122    45   125 1   
   123    46   126 2   
   124    47   124 1   
   125    48   127 1   
   126    48   128 1   
   127    48   129 1   
   128    56   125 1   
   129    57   125 1   
@<TRIPOS>SUBSTRUCTURE
     1 ZKM         1 TEMP              0 ****  ****    0 ROOT
