@<TRIPOS>MOLECULE
ZKM
  129   129     1     0     0
SMALL
No Charge or Current Charge


@<TRIPOS>ATOM
      1 C02         20.3300     6.8710    14.3030 c6         1 ZKM       0.155300
      2 C03         21.0190     5.7830    13.4550 c6         1 ZKM       0.166300
      3 C09         22.4300     6.3020    12.9730 c6         1 ZKM       0.137300
      4 C11         23.1550     7.1470    14.0950 c6         1 ZKM       0.136300
      5 C12         23.3610     8.6960    13.8570 c3         1 ZKM       0.161600
      6 C15         21.1630     7.1440    15.6070 c6         1 ZKM       0.379300
      7 C18         22.5700     8.5100    18.0060 c3         1 ZKM       0.098700
      8 C21         25.0550     6.7310    17.6040 c3         1 ZKM      -0.159400
      9 C22         26.2840     6.1260    18.3330 c3         1 ZKM      -0.057400
     10 C23         26.4540     6.5450    19.8130 c3         1 ZKM      -0.077400
     11 C24         26.8670     8.0210    20.0120 c3         1 ZKM      -0.074400
     12 C25         27.1850     8.3620    21.4840 c3         1 ZKM      -0.077400
     13 C26         27.5420     9.8480    21.7120 c3         1 ZKM      -0.073400
     14 C27         28.0510    10.1220    23.1450 c3         1 ZKM      -0.075400
     15 C28         28.3640    11.6090    23.4180 c3         1 ZKM      -0.074400
     16 C29         29.0360    11.8350    24.7910 c3         1 ZKM      -0.075400
     17 C30         29.2950    13.3240    25.1080 c3         1 ZKM      -0.076400
     18 C31         30.0590    13.5370    26.4360 c3         1 ZKM      -0.072400
     19 C32         30.2070    15.0180    26.8610 c3         1 ZKM      -0.072400
     20 C33         31.0520    15.8830    25.8970 c3         1 ZKM      -0.078400
     21 C34         31.2170    17.3380    26.3860 c3         1 ZKM      -0.078400
     22 C35         31.9880    18.2270    25.3920 c3         1 ZKM      -0.088100
     23 C37         23.0210     9.5140    19.1070 c3         1 ZKM       0.185500
     24 C39         23.3640    10.8730    18.5440 c2         1 ZKM      -0.270200
     25 C40         24.6110    11.3360    18.3640 c2         1 ZKM      -0.198200
     26 C41         24.9740    12.6890    17.7890 c3         1 ZKM      -0.045200
     27 C42         25.4850    13.6620    18.8720 c3         1 ZKM      -0.072400
     28 C43         24.3710    14.1570    19.8260 c3         1 ZKM      -0.075400
     29 C44         24.8730    15.0730    20.9650 c3         1 ZKM      -0.073400
     30 C45         25.6380    14.3190    22.0810 c3         1 ZKM      -0.075400
     31 C46         26.0980    15.2200    23.2490 c3         1 ZKM      -0.076400
     32 C47         27.2680    16.1680    22.8890 c3         1 ZKM      -0.073400
     33 C48         27.8320    16.9670    24.0870 c3         1 ZKM      -0.076400
     34 C49         26.8620    18.0140    24.6790 c3         1 ZKM      -0.076400
     35 C50         27.4900    18.8110    25.8420 c3         1 ZKM      -0.078400
     36 C51         26.5320    19.8620    26.4480 c3         1 ZKM      -0.073400
     37 C52         27.1680    20.7350    27.5570 c3         1 ZKM      -0.073400
     38 C53         27.5900    19.9550    28.8200 c3         1 ZKM      -0.091100
     39 N19         22.7170     7.1200    18.4920 ns         1 ZKM      -0.505900
     40 O01         18.9440     6.5390    14.5490 oh         1 ZKM      -0.732000
     41 O04         20.1080     5.3420    12.4050 os         1 ZKM      -0.604700
     42 O10         22.3750     6.9940    11.7070 oh         1 ZKM      -0.731000
     43 O13         22.1910     9.5210    13.9760 oh         1 ZKM      -0.708000
     44 O14         22.5750     6.8690    15.4030 os         1 ZKM      -0.482000
     45 O16         20.9930     8.5040    16.0630 os         1 ZKM      -0.498000
     46 O36         23.4820     5.0260    18.2920 o          1 ZKM      -0.609100
     47 O38         22.0120     9.6800    20.1040 oh         1 ZKM      -0.654000
     48 S05         20.5820     4.2090    11.3140 s6         1 ZKM       1.498300
     49 H1          20.3520     7.7890    13.7000 h1         1 ZKM       0.074700
     50 H2          21.1990     4.9230    14.1200 h1         1 ZKM       0.071700
     51 H3          23.0480     5.4010    12.8380 h1         1 ZKM       0.051700
     52 H4          24.1800     6.7500    14.1340 h1         1 ZKM       0.061700
     53 H5          24.1030     9.0300    14.5940 h1         1 ZKM       0.030700
     54 H6          23.8240     8.8410    12.8720 h1         1 ZKM       0.030700
     55 H7          20.7910     6.4600    16.3850 h2         1 ZKM       0.079700
     56 H8          20.8970     9.8540    17.6360 h1         1 ZKM       0.057700
     57 H9          20.3980     8.2230    18.0690 h1         1 ZKM       0.057700
     58 H10         23.2400     8.6610    17.1520 h1         1 ZKM       0.075700
     59 H11         25.1120     6.4400    16.5500 hc         1 ZKM       0.058700
     60 H12         25.1180     7.8220    17.6250 hc         1 ZKM       0.058700
     61 H13         26.2200     5.0320    18.2830 hc         1 ZKM       0.047700
     62 H14         27.1920     6.4000    17.7820 hc         1 ZKM       0.047700
     63 H15         25.5270     6.3440    20.3630 hc         1 ZKM       0.045700
     64 H16         27.2250     5.9040    20.2590 hc         1 ZKM       0.045700
     65 H17         27.7520     8.2350    19.3990 hc         1 ZKM       0.032200
     66 H18         26.0680     8.6770    19.6560 hc         1 ZKM       0.032200
     67 H19         26.3230     8.1010    22.1120 hc         1 ZKM       0.037700
     68 H20         28.0230     7.7360    21.8170 hc         1 ZKM       0.037700
     69 H21         28.3160    10.1490    20.9950 hc         1 ZKM       0.035200
     70 H22         26.6590    10.4680    21.5090 hc         1 ZKM       0.035200
     71 H23         27.3030     9.7750    23.8680 hc         1 ZKM       0.037200
     72 H24         28.9580     9.5280    23.3150 hc         1 ZKM       0.037200
     73 H25         29.0220    11.9950    22.6300 hc         1 ZKM       0.036700
     74 H26         27.4320    12.1860    23.3690 hc         1 ZKM       0.036700
     75 H27         28.4030    11.4070    25.5790 hc         1 ZKM       0.036700
     76 H28         29.9880    11.2910    24.8160 hc         1 ZKM       0.036700
     77 H29         29.8620    13.7700    24.2810 hc         1 ZKM       0.038200
     78 H30         28.3340    13.8460    25.1610 hc         1 ZKM       0.038200
     79 H31         29.5300    13.0020    27.2360 hc         1 ZKM       0.036700
     80 H32         31.0540    13.0810    26.3600 hc         1 ZKM       0.036700
     81 H33         30.6700    15.0460    27.8560 hc         1 ZKM       0.035700
     82 H34         29.2100    15.4620    26.9700 hc         1 ZKM       0.035700
     83 H35         30.5850    15.8960    24.9060 hc         1 ZKM       0.039200
     84 H36         32.0440    15.4290    25.7770 hc         1 ZKM       0.039200
     85 H37         31.7420    17.3410    27.3500 hc         1 ZKM       0.036700
     86 H38         30.2290    17.7780    26.5610 hc         1 ZKM       0.036700
     87 H39         32.0820    19.2460    25.7840 hc         1 ZKM       0.031033
     88 H40         32.9950    17.8310    25.2170 hc         1 ZKM       0.031033
     89 H41         31.4620    18.2770    24.4300 hc         1 ZKM       0.031033
     90 H42         23.9230     9.1060    19.5780 h1         1 ZKM       0.035700
     91 H43         22.5030    11.4870    18.2750 ha         1 ZKM       0.184000
     92 H44         25.4740    10.7240    18.6300 ha         1 ZKM       0.164000
     93 H45         25.7520    12.5640    17.0270 hc         1 ZKM       0.050700
     94 H46         24.1130    13.1390    17.2770 hc         1 ZKM       0.050700
     95 H47         26.2830    13.1700    19.4410 hc         1 ZKM       0.038700
     96 H48         25.9390    14.5320    18.3800 hc         1 ZKM       0.038700
     97 H49         23.6290    14.7100    19.2360 hc         1 ZKM       0.039700
     98 H50         23.8450    13.2990    20.2630 hc         1 ZKM       0.039700
     99 H51         25.5060    15.8610    20.5390 hc         1 ZKM       0.036700
    100 H52         24.0070    15.5750    21.4140 hc         1 ZKM       0.036700
    101 H53         24.9840    13.5370    22.4850 hc         1 ZKM       0.039200
    102 H54         26.5110    13.8080    21.6590 hc         1 ZKM       0.039200
    103 H55         25.2410    15.8020    23.6100 hc         1 ZKM       0.037700
    104 H56         26.4060    14.5750    24.0800 hc         1 ZKM       0.037700
    105 H57         28.0840    15.5710    22.4630 hc         1 ZKM       0.038200
    106 H58         26.9530    16.8710    22.1090 hc         1 ZKM       0.038200
    107 H59         28.1280    16.2670    24.8770 hc         1 ZKM       0.037200
    108 H60         28.7470    17.4780    23.7630 hc         1 ZKM       0.037200
    109 H61         26.5530    18.7080    23.8880 hc         1 ZKM       0.037200
    110 H62         25.9560    17.5140    25.0420 hc         1 ZKM       0.037200
    111 H63         27.7950    18.1050    26.6240 hc         1 ZKM       0.038700
    112 H64         28.3980    19.3120    25.4870 hc         1 ZKM       0.038700
    113 H65         26.1810    20.5240    25.6460 hc         1 ZKM       0.036200
    114 H66         25.6450    19.3580    26.8490 hc         1 ZKM       0.036200
    115 H67         28.0400    21.2620    27.1510 hc         1 ZKM       0.035200
    116 H68         26.4450    21.5060    27.8490 hc         1 ZKM       0.035200
    117 H69         27.9460    20.6480    29.5920 hc         1 ZKM       0.031033
    118 H70         26.7430    19.3920    29.2300 hc         1 ZKM       0.031033
    119 H71         28.4010    19.2520    28.5990 hc         1 ZKM       0.031033
    120 H72         21.9150     6.7060    18.9500 hn         1 ZKM       0.321500
    121 H73         18.6950     6.0080    13.7500 ho         1 ZKM       0.533000
    122 H74         21.9790     6.3280    11.0680 ho         1 ZKM       0.557000
    123 H75         21.7410     9.2280    14.8150 ho         1 ZKM       0.511000
    124 H76         22.3700    10.3210    20.7540 ho         1 ZKM       0.442000
    125 C17         21.1280     8.7930    17.4790 c3         1 ZKM       0.171600
    126 C20         23.6980     6.2180    18.1370 c          1 ZKM       0.619100
    127 O06         21.3570     3.2440    12.1020 o          1 ZKM      -0.703867
    128 O07         21.3810     4.9940    10.3620 o          1 ZKM      -0.703867
    129 O08         19.3200     3.6920    10.7710 o          1 ZKM      -0.703867
@<TRIPOS>BOND
     1     1     2 1   
     2     1     6 1   
     3     1    40 1   
     4     1    49 1   
     5     2     3 1   
     6     2    41 1   
     7     2    50 1   
     8     3     4 1   
     9     3    42 1   
    10     3    51 1   
    11     4     5 1   
    12     4    44 1   
    13     4    52 1   
    14     5    43 1   
    15     5    53 1   
    16     5    54 1   
    17     6    44 1   
    18     6    45 1   
    19     6    55 1   
    20     7    23 1   
    21     7    39 1   
    22     7    58 1   
    23     7   125 1   
    24     8     9 1   
    25     8    59 1   
    26     8    60 1   
    27     8   126 1   
    28     9    10 1   
    29     9    61 1   
    30     9    62 1   
    31    10    11 1   
    32    10    63 1   
    33    10    64 1   
    34    11    12 1   
    35    11    65 1   
    36    11    66 1   
    37    12    13 1   
    38    12    67 1   
    39    12    68 1   
    40    13    14 1   
    41    13    69 1   
    42    13    70 1   
    43    14    15 1   
    44    14    71 1   
    45    14    72 1   
    46    15    16 1   
    47    15    73 1   
    48    15    74 1   
    49    16    17 1   
    50    16    75 1   
    51    16    76 1   
    52    17    18 1   
    53    17    77 1   
    54    17    78 1   
    55    18    19 1   
    56    18    79 1   
    57    18    80 1   
    58    19    20 1   
    59    19    81 1   
    60    19    82 1   
    61    20    21 1   
    62    20    83 1   
    63    20    84 1   
    64    21    22 1   
    65    21    85 1   
    66    21    86 1   
    67    22    87 1   
    68    22    88 1   
    69    22    89 1   
    70    23    24 1   
    71    23    47 1   
    72    23    90 1   
    73    24    25 2   
    74    24    91 1   
    75    25    26 1   
    76    25    92 1   
    77    26    27 1   
    78    26    93 1   
    79    26    94 1   
    80    27    28 1   
    81    27    95 1   
    82    27    96 1   
    83    28    29 1   
    84    28    97 1   
    85    28    98 1   
    86    29    30 1   
    87    29    99 1   
    88    29   100 1   
    89    30    31 1   
    90    30   101 1   
    91    30   102 1   
    92    31    32 1   
    93    31   103 1   
    94    31   104 1   
    95    32    33 1   
    96    32   105 1   
    97    32   106 1   
    98    33    34 1   
    99    33   107 1   
   100    33   108 1   
   101    34    35 1   
   102    34   109 1   
   103    34   110 1   
   104    35    36 1   
   105    35   111 1   
   106    35   112 1   
   107    36    37 1   
   108    36   113 1   
   109    36   114 1   
   110    37    38 1   
   111    37   115 1   
   112    37   116 1   
   113    38   117 1   
   114    38   118 1   
   115    38   119 1   
   116    39   120 1   
   117    39   126 1   
   118    40   121 1   
   119    41    48 1   
   120    42   122 1   
   121    43   123 1   
   122    45   125 1   
   123    46   126 2   
   124    47   124 1   
   125    48   127 1   
   126    48   128 1   
   127    48   129 1   
   128    56   125 1   
   129    57   125 1   
@<TRIPOS>SUBSTRUCTURE
     1 ZKM         1 TEMP              0 ****  ****    0 ROOT
