@<TRIPOS>MOLECULE
ZKO
   29    28     1     0     0
SMALL
abcg2


@<TRIPOS>ATOM
      1 NE2          5.2870    -1.0660     1.0850 nt         1 ZKO      -0.624000
      2 CD           3.9740    -1.2180     1.3200 c          1 ZKO       0.599100
      3 OE1          3.5150    -2.1990     1.8870 o          1 ZKO      -0.636100
      4 CG           3.1040    -0.0660     0.8560 c3         1 ZKO      -0.145400
      5 CB           1.7450    -0.5300     0.3530 c3         1 ZKO      -0.062400
      6 CA           0.7790     0.6170     0.0490 c3         1 ZKO      -0.024300
      7 N           -0.5060     0.0330    -0.2680 ns         1 ZKO      -0.482900
      8 C5          -1.6050     0.7680    -0.4860 c          1 ZKO       0.596100
      9 O2          -1.6190     1.9870    -0.3410 o          1 ZKO      -0.638100
     10 C6          -2.8360    -0.0040    -0.9080 c3         1 ZKO      -0.133400
     11 C7          -4.0350     0.2920    -0.0190 c3         1 ZKO      -0.198400
     12 C8          -5.3420    -0.4200    -0.4250 c          1 ZKO       0.716000
     13 O3          -5.4020    -0.9110    -1.5700 o          1 ZKO      -0.756500
     14 O4          -6.2440    -0.4210     0.4370 o          1 ZKO      -0.756500
     15 C            1.3300     1.5080    -1.0970 c          1 ZKO       0.721000
     16 OXT          2.0090     2.4900    -0.7400 o          1 ZKO      -0.736500
     17 O            1.0890     1.1340    -2.2590 o          1 ZKO      -0.736500
     18 HE21         5.9460    -1.7580     1.4050 hn         1 ZKO       0.298000
     19 HE22         5.6550    -0.2590     0.6130 hn         1 ZKO       0.298000
     20 HG2          2.9680     0.6030     1.7130 hc         1 ZKO       0.071200
     21 HG3          3.6220     0.5210     0.0970 hc         1 ZKO       0.071200
     22 HB2          1.8710    -1.1370    -0.5500 hc         1 ZKO       0.035700
     23 HB3          1.2880    -1.1770     1.1050 hc         1 ZKO       0.035700
     24 HA           0.6770     1.2280     0.9520 h1         1 ZKO       0.045700
     25 H           -0.5470    -0.9540    -0.4650 hn         1 ZKO       0.291500
     26 H9          -3.0640     0.2760    -1.9400 hc         1 ZKO       0.049700
     27 H10         -2.6350    -1.0780    -0.9210 hc         1 ZKO       0.049700
     28 H11         -3.8030     0.0350     1.0180 hc         1 ZKO       0.026700
     29 H12         -4.2280     1.3700    -0.0150 hc         1 ZKO       0.026700
@<TRIPOS>BOND
     1     1     2 1   
     2     1    18 1   
     3     1    19 1   
     4     2     3 2   
     5     2     4 1   
     6     4     5 1   
     7     4    20 1   
     8     4    21 1   
     9     5     6 1   
    10     5    22 1   
    11     5    23 1   
    12     6     7 1   
    13     6    15 1   
    14     6    24 1   
    15     7     8 1   
    16     7    25 1   
    17     8     9 2   
    18     8    10 1   
    19    10    11 1   
    20    10    26 1   
    21    10    27 1   
    22    11    12 1   
    23    11    28 1   
    24    11    29 1   
    25    12    13 1   
    26    12    14 1   
    27    15    16 1   
    28    15    17 1   
@<TRIPOS>SUBSTRUCTURE
     1 ZKO         1 TEMP              0 ****  ****    0 ROOT
