@<TRIPOS>MOLECULE
ZKO
   29    28     1     0     0
SMALL
No Charge or Current Charge


@<TRIPOS>ATOM
      1 NE2          4.1920    -1.7290     1.5670 nt         1 ZKO      -0.624000
      2 CD           3.4540    -0.6860     2.0030 c          1 ZKO       0.599100
      3 OE1          3.1940    -0.5700     3.1890 o          1 ZKO      -0.636100
      4 CG           2.9830     0.3050     0.9360 c3         1 ZKO      -0.145400
      5 CB           1.5470    -0.0210     0.4560 c3         1 ZKO      -0.062400
      6 CA           0.9860     0.9860    -0.5830 c3         1 ZKO      -0.024300
      7 N           -0.4320     0.6930    -0.9010 ns         1 ZKO      -0.482900
      8 C5          -1.5120     1.0110    -0.1060 c          1 ZKO       0.596100
      9 O2          -1.3960     1.6280     0.9450 o          1 ZKO      -0.638100
     10 C6          -2.8760     0.5730    -0.6610 c3         1 ZKO      -0.133400
     11 C7          -3.4590    -0.6460     0.1090 c3         1 ZKO      -0.198400
     12 C8          -4.8220    -1.0550    -0.4780 c          1 ZKO       0.716000
     13 O3          -5.8260    -0.5210    -0.0340 o          1 ZKO      -0.756500
     14 O4          -4.8350    -1.8560    -1.4000 o          1 ZKO      -0.756500
     15 C            1.8380     1.0360    -1.8940 c          1 ZKO       0.721000
     16 OXT          2.4400     2.0690    -2.1540 o          1 ZKO      -0.736500
     17 O            1.7960     0.0790    -2.6570 o          1 ZKO      -0.736500
     18 HE21         4.5250    -2.4110     2.2320 hn         1 ZKO       0.298000
     19 HE22         4.4010    -1.8240     0.5840 hn         1 ZKO       0.298000
     20 HG2          2.9950     1.3170     1.3570 hc         1 ZKO       0.071200
     21 HG3          3.6500     0.2440     0.0670 hc         1 ZKO       0.071200
     22 HB2          1.5290    -1.0320     0.0280 hc         1 ZKO       0.035700
     23 HB3          0.8840    -0.0390     1.3300 hc         1 ZKO       0.035700
     24 HA           1.0240     1.9890    -0.1390 h1         1 ZKO       0.045700
     25 H           -0.6310     0.1910    -1.7590 hn         1 ZKO       0.291500
     26 H9          -3.5780     1.4100    -0.5680 hc         1 ZKO       0.049700
     27 H10         -2.7750     0.2930    -1.7170 hc         1 ZKO       0.049700
     28 H11         -2.7300    -1.4550    -0.0160 hc         1 ZKO       0.026700
     29 H12         -3.5760    -0.3160     1.1490 hc         1 ZKO       0.026700
@<TRIPOS>BOND
     1     1     2 1   
     2     1    18 1   
     3     1    19 1   
     4     2     3 2   
     5     2     4 1   
     6     4     5 1   
     7     4    20 1   
     8     4    21 1   
     9     5     6 1   
    10     5    22 1   
    11     5    23 1   
    12     6     7 1   
    13     6    15 1   
    14     6    24 1   
    15     7     8 1   
    16     7    25 1   
    17     8     9 2   
    18     8    10 1   
    19    10    11 1   
    20    10    26 1   
    21    10    27 1   
    22    11    12 1   
    23    11    28 1   
    24    11    29 1   
    25    12    13 1   
    26    12    14 1   
    27    15    16 1   
    28    15    17 1   
@<TRIPOS>SUBSTRUCTURE
     1 ZKO         1 TEMP              0 ****  ****    0 ROOT
