@<TRIPOS>MOLECULE
ZKQ
   39    41     1     0     0
SMALL
abcg2


@<TRIPOS>ATOM
      1 N1         -16.6660    17.7910    26.0620 ns         1 ZKQ      -0.153000
      2 N3         -19.4250    13.7120    25.8690 n          1 ZKQ      -0.407800
      3 C4         -13.6150    19.7870    26.7580 ca         1 ZKQ      -0.109000
      4 C5         -14.4460    18.7120    26.4650 ca         1 ZKQ      -0.124000
      5 C6         -15.8310    18.8690    26.4120 ca         1 ZKQ      -0.069000
      6 C7         -17.6600    17.3340    26.9180 c          1 ZKQ       0.656100
      7 C8         -18.4650    15.8120    25.0820 c6         1 ZKQ       0.093000
      8 C10        -19.3300    14.1650    27.2570 c6         1 ZKQ       0.085500
      9 C13        -21.3350    12.2100    26.1850 cc         1 ZKQ       0.060500
     10 C15        -23.0840    11.0910    27.0260 cd         1 ZKQ      -0.196000
     11 C1         -16.3450    20.1410    26.6550 ca         1 ZKQ       0.180000
     12 C11        -19.4040    15.6830    27.3300 c6         1 ZKQ       0.093000
     13 C12        -20.1700    12.6770    25.4090 c          1 ZKQ       0.543600
     14 C14        -21.9590    10.9980    26.1550 cd         1 ZKQ      -0.102000
     15 C16        -23.0790    12.3590    27.5170 cc         1 ZKQ       0.147900
     16 C2         -15.5380    21.2180    26.9710 ca         1 ZKQ      -0.136000
     17 C3         -14.1590    21.0390    27.0230 ca         1 ZKQ      -0.095000
     18 C9         -18.3950    14.2900    25.0130 c6         1 ZKQ       0.085500
     19 F1         -17.6790    20.3440    26.5490 f          1 ZKQ      -0.167000
     20 N2         -18.3860    16.2700    26.4660 n          1 ZKQ      -0.433800
     21 O1         -17.8530    17.8540    28.0150 o          1 ZKQ      -0.612100
     22 O2         -19.9280    12.1140    24.3350 o          1 ZKQ      -0.595100
     23 O3         -22.0240    13.0550    27.0190 os         1 ZKQ      -0.248000
     24 H5         -16.2410    17.1130    25.4490 hn         1 ZKQ       0.144000
     25 H3         -12.5430    19.6410    26.7910 ha         1 ZKQ       0.119000
     26 H4         -14.0290    17.7310    26.2730 ha         1 ZKQ       0.113000
     27 H6         -19.4160    16.1470    24.6520 h1         1 ZKQ       0.063700
     28 H7         -17.6680    16.2340    24.4790 h1         1 ZKQ       0.063700
     29 H10        -20.1150    13.7250    27.8580 h1         1 ZKQ       0.064200
     30 H11        -18.3650    13.8340    27.6550 h1         1 ZKQ       0.064200
     31 H15        -23.8020    10.3210    27.2520 ha         1 ZKQ       0.148000
     32 H13        -20.3980    16.0220    27.0170 h1         1 ZKQ       0.063700
     33 H12        -19.2300    16.0150    28.3490 h1         1 ZKQ       0.063700
     34 H14        -21.6460    10.1440    25.5790 ha         1 ZKQ       0.157000
     35 H16        -23.7250    12.8980    28.1890 h4         1 ZKQ       0.056100
     36 H1         -15.9940    22.1820    27.1540 ha         1 ZKQ       0.134000
     37 H2         -13.5190    21.8770    27.2630 ha         1 ZKQ       0.120000
     38 H9         -18.5580    13.9550    23.9940 h1         1 ZKQ       0.064200
     39 H8         -17.4080    13.9470    25.3410 h1         1 ZKQ       0.064200
@<TRIPOS>BOND
     1     1     5 1   
     2     1     6 1   
     3     1    24 1   
     4     2     8 1   
     5     2    13 1   
     6     2    18 1   
     7     3     4 ar  
     8     3    17 ar  
     9     3    25 1   
    10     4     5 ar  
    11     4    26 1   
    12     5    11 ar  
    13     6    20 1   
    14     6    21 2   
    15     7    18 1   
    16     7    20 1   
    17     7    27 1   
    18     7    28 1   
    19     8    12 1   
    20     8    29 1   
    21     8    30 1   
    22     9    13 1   
    23     9    14 2   
    24     9    23 1   
    25    10    14 1   
    26    10    15 2   
    27    10    31 1   
    28    11    16 ar  
    29    11    19 1   
    30    12    20 1   
    31    12    32 1   
    32    12    33 1   
    33    13    22 2   
    34    14    34 1   
    35    15    23 1   
    36    15    35 1   
    37    16    17 ar  
    38    16    36 1   
    39    17    37 1   
    40    18    38 1   
    41    18    39 1   
@<TRIPOS>SUBSTRUCTURE
     1 ZKQ         1 TEMP              0 ****  ****    0 ROOT
