@<TRIPOS>MOLECULE
ZKQ
   39    41     1     0     0
SMALL
No Charge or Current Charge


@<TRIPOS>ATOM
      1 N1         -16.4830    17.7930    26.4320 ns         1 ZKQ      -0.153000
      2 N3         -19.4840    13.6030    25.9830 n          1 ZKQ      -0.407800
      3 C4         -13.7270    20.2710    26.0780 ca         1 ZKQ      -0.109000
      4 C5         -14.4530    19.0670    26.0610 ca         1 ZKQ      -0.124000
      5 C6         -15.7990    19.0370    26.4750 ca         1 ZKQ      -0.069000
      6 C7         -17.3900    17.2270    27.3200 c          1 ZKQ       0.656100
      7 C8         -17.8460    15.4990    25.5110 c6         1 ZKQ       0.093000
      8 C10        -19.4240    13.9500    27.4300 c6         1 ZKQ       0.085500
      9 C13        -21.5590    12.2030    26.0930 cc         1 ZKQ       0.060500
     10 C15        -23.5590    11.2780    26.4790 cd         1 ZKQ      -0.196000
     11 C1         -16.4220    20.2450    26.8730 ca         1 ZKQ       0.180000
     12 C11        -19.1140    15.4410    27.6930 c6         1 ZKQ       0.093000
     13 C12        -20.2010    12.4690    25.5140 c          1 ZKQ       0.543600
     14 C14        -22.3370    11.1140    25.7960 cd         1 ZKQ      -0.102000
     15 C16        -23.4920    12.4670    27.1530 cc         1 ZKQ       0.147900
     16 C2         -15.6950    21.4480    26.8860 ca         1 ZKQ      -0.136000
     17 C3         -14.3450    21.4610    26.4950 ca         1 ZKQ      -0.095000
     18 C9         -18.2390    14.0160    25.2870 c6         1 ZKQ       0.085500
     19 F1         -17.7360    20.2830    27.1880 f          1 ZKQ      -0.167000
     20 N2         -17.9720    16.0020    26.9140 n          1 ZKQ      -0.433800
     21 O1         -17.6570    17.7270    28.4050 o          1 ZKQ      -0.612100
     22 O2         -19.7270    11.7600    24.6310 o          1 ZKQ      -0.595100
     23 O3         -22.2700    13.0580    26.9160 os         1 ZKQ      -0.248000
     24 H5         -16.2840    17.2350    25.6140 hn         1 ZKQ       0.144000
     25 H3         -12.6850    20.2810    25.7660 ha         1 ZKQ       0.119000
     26 H4         -13.9630    18.1510    25.7350 ha         1 ZKQ       0.113000
     27 H6         -18.4870    16.1220    24.8700 h1         1 ZKQ       0.063700
     28 H7         -16.8150    15.6220    25.1530 h1         1 ZKQ       0.063700
     29 H10        -20.3340    13.6810    27.9720 h1         1 ZKQ       0.064200
     30 H11        -18.6190    13.3540    27.8830 h1         1 ZKQ       0.064200
     31 H15        -24.4050    10.5990    26.4700 ha         1 ZKQ       0.148000
     32 H13        -20.0120    16.0290    27.4550 h1         1 ZKQ       0.063700
     33 H12        -18.9260    15.5660    28.7690 h1         1 ZKQ       0.063700
     34 H14        -22.0600    10.2860    25.1500 ha         1 ZKQ       0.157000
     35 H16        -24.1950    12.9850    27.7920 h4         1 ZKQ       0.056100
     36 H1         -16.1840    22.3700    27.1880 ha         1 ZKQ       0.134000
     37 H2         -13.7830    22.3930    26.5050 ha         1 ZKQ       0.120000
     38 H9         -18.3350    13.8420    24.2060 h1         1 ZKQ       0.064200
     39 H8         -17.4170    13.3780    25.6430 h1         1 ZKQ       0.064200
@<TRIPOS>BOND
     1     1     5 1   
     2     1     6 1   
     3     1    24 1   
     4     2     8 1   
     5     2    13 1   
     6     2    18 1   
     7     3     4 ar  
     8     3    17 ar  
     9     3    25 1   
    10     4     5 ar  
    11     4    26 1   
    12     5    11 ar  
    13     6    20 1   
    14     6    21 2   
    15     7    18 1   
    16     7    20 1   
    17     7    27 1   
    18     7    28 1   
    19     8    12 1   
    20     8    29 1   
    21     8    30 1   
    22     9    13 1   
    23     9    14 2   
    24     9    23 1   
    25    10    14 1   
    26    10    15 2   
    27    10    31 1   
    28    11    16 ar  
    29    11    19 1   
    30    12    20 1   
    31    12    32 1   
    32    12    33 1   
    33    13    22 2   
    34    14    34 1   
    35    15    23 1   
    36    15    35 1   
    37    16    17 ar  
    38    16    36 1   
    39    17    37 1   
    40    18    38 1   
    41    18    39 1   
@<TRIPOS>SUBSTRUCTURE
     1 ZKQ         1 TEMP              0 ****  ****    0 ROOT
