@<TRIPOS>MOLECULE
ZKU
   38    40     1     0     0
SMALL
No Charge or Current Charge


@<TRIPOS>ATOM
      1 N1         -16.4530    18.0390    26.5100 ns         1 ZKU      -0.337900
      2 N3         -18.4050    16.7710    26.8350 n          1 ZKU      -0.436800
      3 C4         -13.9740    20.5290    27.8130 ca         1 ZKU      -0.050000
      4 C5         -13.1090    20.4590    26.7100 ca         1 ZKU      -0.198000
      5 C6         -13.4230    19.6030    25.6420 ca         1 ZKU       0.369900
      6 C7         -18.4070    16.3560    25.4010 c6         1 ZKU       0.094500
      7 C8         -19.6960    15.6190    24.9470 c6         1 ZKU       0.092500
      8 C10        -19.5210    16.2300    27.6570 c6         1 ZKU       0.094500
      9 C13        -21.5360    10.9680    25.8220 cc         1 ZKU      -0.101000
     10 C15        -21.0500    10.8360    27.9860 cd         1 ZKU       0.147900
     11 C1         -17.4390    17.6420    27.3790 c          1 ZKU       0.674100
     12 C12        -20.9480    12.1380    26.2310 cd         1 ZKU       0.060500
     13 C14        -21.6040    10.1340    26.9530 cc         1 ZKU      -0.196000
     14 C2         -15.3590    18.8920    26.6860 ca         1 ZKU       0.490900
     15 C3         -15.1270    19.7260    27.7970 ca         1 ZKU      -0.176000
     16 C9         -19.8900    14.7640    27.3030 c6         1 ZKU       0.092500
     17 N2         -14.5320    18.8280    25.6230 nb         1 ZKU      -0.742000
     18 N4         -20.0820    14.4940    25.8470 n          1 ZKU      -0.409800
     19 O1         -17.4860    17.9990    28.5460 o          1 ZKU      -0.629100
     20 O2         -20.9260    13.2400    24.1200 o          1 ZKU      -0.595100
     21 O3         -20.6260    12.0800    27.5760 os         1 ZKU      -0.248000
     22 H1         -16.5100    17.6450    25.5840 hn         1 ZKU       0.164000
     23 H3         -13.7600    21.1860    28.6540 ha         1 ZKU       0.121000
     24 H4         -12.2050    21.0610    26.6750 ha         1 ZKU       0.126000
     25 H5         -12.7680    19.5340    24.7750 h4         1 ZKU       0.018100
     26 H6         -18.2720    17.2400    24.7610 h1         1 ZKU       0.062700
     27 H7         -17.5480    15.6920    25.2310 h1         1 ZKU       0.062700
     28 H8         -20.5260    16.3390    24.9110 h1         1 ZKU       0.066450
     29 H9         -19.5380    15.2580    23.9220 h1         1 ZKU       0.066450
     30 H12        -20.4040    16.8680    27.5080 h1         1 ZKU       0.062700
     31 H13        -19.2680    16.2750    28.7260 h1         1 ZKU       0.062700
     32 H16        -20.9010    10.5710    29.0250 h4         1 ZKU       0.056100
     33 H15        -22.0160     9.1300    26.9870 ha         1 ZKU       0.148000
     34 H2         -15.8190    19.7670    28.6300 ha         1 ZKU       0.159000
     35 H10        -20.8120    14.5130    27.8470 h1         1 ZKU       0.066450
     36 H11        -19.0890    14.1110    27.6760 h1         1 ZKU       0.066450
     37 C11        -20.6650    13.3060    25.3170 c          1 ZKU       0.538600
     38 H14        -21.8860    10.7220    24.8230 ha         1 ZKU       0.158000
@<TRIPOS>BOND
     1     1    11 1   
     2     1    14 1   
     3     1    22 1   
     4     2     6 1   
     5     2     8 1   
     6     2    11 1   
     7     3     4 ar  
     8     3    15 ar  
     9     3    23 1   
    10     4     5 ar  
    11     4    24 1   
    12     5    17 ar  
    13     5    25 1   
    14     6     7 1   
    15     6    26 1   
    16     6    27 1   
    17     7    18 1   
    18     7    28 1   
    19     7    29 1   
    20     8    16 1   
    21     8    30 1   
    22     8    31 1   
    23     9    12 2   
    24     9    13 1   
    25     9    38 1   
    26    10    13 2   
    27    10    21 1   
    28    10    32 1   
    29    11    19 2   
    30    12    21 1   
    31    12    37 1   
    32    13    33 1   
    33    14    15 ar  
    34    14    17 ar  
    35    15    34 1   
    36    16    18 1   
    37    16    35 1   
    38    16    36 1   
    39    18    37 1   
    40    20    37 2   
@<TRIPOS>SUBSTRUCTURE
     1 ZKU         1 TEMP              0 ****  ****    0 ROOT
