@<TRIPOS>MOLECULE
ZKU
   38    40     1     0     0
SMALL
abcg2


@<TRIPOS>ATOM
      1 N1         -16.3360    17.8750    26.4580 ns         1 ZKU      -0.337900
      2 N3         -18.2360    16.5810    26.7180 n          1 ZKU      -0.436800
      3 C4         -14.4370    20.7670    27.7670 ca         1 ZKU      -0.050000
      4 C5         -13.3840    20.7280    26.8580 ca         1 ZKU      -0.198000
      5 C6         -13.4060    19.7350    25.8910 ca         1 ZKU       0.369900
      6 C7         -18.0950    16.0160    25.3740 c6         1 ZKU       0.094500
      7 C8         -19.4110    15.4170    24.9110 c6         1 ZKU       0.092500
      8 C10        -19.2970    16.0220    27.5520 c6         1 ZKU       0.094500
      9 C13        -22.2220    11.5150    26.1410 cc         1 ZKU      -0.101000
     10 C15        -20.8660    10.7500    27.7350 cd         1 ZKU       0.147900
     11 C1         -17.4240    17.5380    27.2430 c          1 ZKU       0.674100
     12 C12        -21.1140    12.3080    26.2040 cd         1 ZKU       0.060500
     13 C14        -22.0640    10.5100    27.1390 cc         1 ZKU      -0.196000
     14 C2         -15.3820    18.8670    26.6750 ca         1 ZKU       0.490900
     15 C3         -15.4560    19.8320    27.6860 ca         1 ZKU      -0.176000
     16 C9         -19.4880    14.5460    27.2430 c6         1 ZKU       0.092500
     17 N2         -14.3750    18.8230    25.7940 nb         1 ZKU      -0.742000
     18 N4         -19.8590    14.3720    25.8320 n          1 ZKU      -0.409800
     19 O1         -17.6430    18.0590    28.3380 o          1 ZKU      -0.629100
     20 O2         -21.2270    13.5440    24.2280 o          1 ZKU      -0.595100
     21 O3         -20.2730    11.8400    27.1810 os         1 ZKU      -0.248000
     22 H1         -16.1120    17.2940    25.6650 hn         1 ZKU       0.164000
     23 H3         -14.4680    21.5250    28.5390 ha         1 ZKU       0.121000
     24 H4         -12.5730    21.4420    26.8960 ha         1 ZKU       0.126000
     25 H5         -12.6110    19.6620    25.1570 h4         1 ZKU       0.018100
     26 H6         -17.8280    16.8010    24.6670 h1         1 ZKU       0.062700
     27 H7         -17.3100    15.2520    25.3520 h1         1 ZKU       0.062700
     28 H8         -20.1690    16.2010    24.8250 h1         1 ZKU       0.066450
     29 H9         -19.2790    14.9790    23.9240 h1         1 ZKU       0.066450
     30 H12        -20.2350    16.5640    27.4010 h1         1 ZKU       0.062700
     31 H13        -19.0130    16.1340    28.5960 h1         1 ZKU       0.062700
     32 H16        -20.3170    10.2630    28.5220 h4         1 ZKU       0.056100
     33 H15        -22.7490     9.7140    27.3800 ha         1 ZKU       0.148000
     34 H2         -16.2830    19.8340    28.3750 ha         1 ZKU       0.159000
     35 H10        -20.2800    14.1590    27.8780 h1         1 ZKU       0.066450
     36 H11        -18.5710    13.9990    27.4690 h1         1 ZKU       0.066450
     37 C11        -20.7370    13.4570    25.3610 c          1 ZKU       0.538600
     38 H14        -23.0480    11.6400    25.4620 ha         1 ZKU       0.158000
@<TRIPOS>BOND
     1     1    11 1   
     2     1    14 1   
     3     1    22 1   
     4     2     6 1   
     5     2     8 1   
     6     2    11 1   
     7     3     4 ar  
     8     3    15 ar  
     9     3    23 1   
    10     4     5 ar  
    11     4    24 1   
    12     5    17 ar  
    13     5    25 1   
    14     6     7 1   
    15     6    26 1   
    16     6    27 1   
    17     7    18 1   
    18     7    28 1   
    19     7    29 1   
    20     8    16 1   
    21     8    30 1   
    22     8    31 1   
    23     9    12 2   
    24     9    13 1   
    25     9    38 1   
    26    10    13 2   
    27    10    21 1   
    28    10    32 1   
    29    11    19 2   
    30    12    21 1   
    31    12    37 1   
    32    13    33 1   
    33    14    15 ar  
    34    14    17 ar  
    35    15    34 1   
    36    16    18 1   
    37    16    35 1   
    38    16    36 1   
    39    18    37 1   
    40    20    37 2   
@<TRIPOS>SUBSTRUCTURE
     1 ZKU         1 TEMP              0 ****  ****    0 ROOT
