@<TRIPOS>MOLECULE
ZKV
   49    51     1     0     0
SMALL
No Charge or Current Charge


@<TRIPOS>ATOM
      1 C01        105.4170   125.5270    96.9770 c3         1 ZKV      -0.042800
      2 C02        106.5730   124.5370    96.9370 ca         1 ZKV      -0.126300
      3 C03        106.5400   123.3690    97.7180 ca         1 ZKV      -0.080000
      4 C04        107.6290   122.4850    97.6420 ca         1 ZKV      -0.140000
      5 C05        108.7130   122.7920    96.7970 ca         1 ZKV       0.337300
      6 C06        107.6940   124.7660    96.1130 ca         1 ZKV       0.339900
      7 C07        109.9180   121.8420    96.6880 c3         1 ZKV       0.110500
      8 C08        111.0240   120.0400    95.3260 c3         1 ZKV       0.145800
      9 C09        110.9690   119.1580    94.0290 c6         1 ZKV       0.208000
     10 C10        112.2640   118.3350    93.8430 c6         1 ZKV      -0.112900
     11 C11        112.2100   117.4340    92.5860 c6         1 ZKV       0.099500
     12 C12        109.7350   117.3200    92.7350 c6         1 ZKV       0.099500
     13 C13        109.7450   118.2100    93.9990 c6         1 ZKV      -0.112900
     14 C15        109.9380   114.3990    91.8260 ca         1 ZKV      -0.152600
     15 C16        109.5840   113.5820    90.7280 ca         1 ZKV      -0.039000
     16 C17        108.6090   112.5780    90.8700 ca         1 ZKV      -0.153000
     17 C18        107.9890   112.3710    92.1110 ca         1 ZKV       0.196000
     18 C19        108.3480   113.1600    93.2200 ca         1 ZKV       0.057000
     19 C20        109.3220   114.1630    93.0790 ca         1 ZKV      -0.056000
     20 F01        107.0540   111.4010    92.2340 f          1 ZKV      -0.157000
     21 F02        110.8620   120.0420    92.9300 f          1 ZKV      -0.276000
     22 N01        108.7460   123.9180    96.0380 nb         1 ZKV      -0.676000
     23 N02        109.8550   120.9400    95.5050 n7         1 ZKV      -0.875400
     24 N03        111.0040   116.5580    92.5400 n          1 ZKV      -0.411800
     25 O01        111.9020   115.3110    90.8310 o          1 ZKV      -0.590100
     26 Cl01       107.5960   112.9000    94.7930 cl         1 ZKV      -0.165000
     27 H1         105.0310   125.6440    97.9970 hc         1 ZKV       0.044700
     28 H2         105.7250   126.5200    96.6260 hc         1 ZKV       0.044700
     29 H3         104.5910   125.1890    96.3420 hc         1 ZKV       0.044700
     30 H4         105.6920   123.1490    98.3640 ha         1 ZKV       0.117000
     31 H5         107.6370   121.5700    98.2280 ha         1 ZKV       0.137000
     32 H6         107.7530   125.6590    95.4910 h4         1 ZKV       0.017100
     33 H7         109.9760   121.2490    97.6110 h1         1 ZKV       0.052200
     34 H8         110.8310   122.4530    96.6500 h1         1 ZKV       0.052200
     35 H9         111.1160   119.3680    96.1910 h1         1 ZKV       0.043200
     36 H10        111.9470   120.6350    95.2840 h1         1 ZKV       0.043200
     37 H11        112.4250   117.7040    94.7270 hc         1 ZKV       0.065200
     38 H12        113.1320   119.0050    93.7770 hc         1 ZKV       0.065200
     39 H13        113.1170   116.8130    92.5610 h1         1 ZKV       0.063450
     40 H14        112.2240   118.0640    91.6840 h1         1 ZKV       0.063450
     41 H15        109.5780   117.9590    91.8530 h1         1 ZKV       0.063450
     42 H16        108.8690   116.6480    92.7820 h1         1 ZKV       0.063450
     43 H17        108.8140   118.7900    94.0430 hc         1 ZKV       0.065200
     44 H18        109.7550   117.5700    94.8910 hc         1 ZKV       0.065200
     45 H19        110.0590   113.7310    89.7600 ha         1 ZKV       0.136000
     46 H20        108.3350   111.9600    90.0190 ha         1 ZKV       0.141000
     47 H21        109.6060   114.7450    93.9530 ha         1 ZKV       0.135000
     48 H22        109.7840   121.5300    94.6640 hn         1 ZKV       0.425000
     49 C14        111.0060   115.4570    91.6540 c          1 ZKV       0.623700
@<TRIPOS>BOND
     1     1     2 1   
     2     1    27 1   
     3     1    28 1   
     4     1    29 1   
     5     2     3 ar  
     6     2     6 ar  
     7     3     4 ar  
     8     3    30 1   
     9     4     5 ar  
    10     4    31 1   
    11     5     7 1   
    12     5    22 ar  
    13     6    22 ar  
    14     6    32 1   
    15     7    23 1   
    16     7    33 1   
    17     7    34 1   
    18     8     9 1   
    19     8    23 1   
    20     8    35 1   
    21     8    36 1   
    22     9    10 1   
    23     9    13 1   
    24     9    21 1   
    25    10    11 1   
    26    10    37 1   
    27    10    38 1   
    28    11    24 1   
    29    11    39 1   
    30    11    40 1   
    31    12    13 1   
    32    12    24 1   
    33    12    41 1   
    34    12    42 1   
    35    13    43 1   
    36    13    44 1   
    37    14    15 ar  
    38    14    19 ar  
    39    14    49 1   
    40    15    16 ar  
    41    15    45 1   
    42    16    17 ar  
    43    16    46 1   
    44    17    18 ar  
    45    17    20 1   
    46    18    19 ar  
    47    18    26 1   
    48    19    47 1   
    49    23    48 1   
    50    24    49 1   
    51    25    49 2   
@<TRIPOS>SUBSTRUCTURE
     1 ZKV         1 TEMP              0 ****  ****    0 ROOT
