@<TRIPOS>MOLECULE
ZKV
   49    51     1     0     0
SMALL
abcg2


@<TRIPOS>ATOM
      1 C01        105.2950   124.7450    97.3670 c3         1 ZKV      -0.042800
      2 C02        106.4900   123.8950    97.0640 ca         1 ZKV      -0.126300
      3 C03        106.4640   122.9030    96.0880 ca         1 ZKV      -0.080000
      4 C04        107.5960   122.1460    95.8410 ca         1 ZKV      -0.140000
      5 C05        108.7510   122.4000    96.5760 ca         1 ZKV       0.337300
      6 C06        107.6930   124.0590    97.7410 ca         1 ZKV       0.339900
      7 C07        110.0170   121.6070    96.3830 c3         1 ZKV       0.110500
      8 C08        111.2190   120.0980    94.9310 c3         1 ZKV       0.145800
      9 C09        111.1560   119.3050    93.6360 c6         1 ZKV       0.208000
     10 C10        112.3830   118.4210    93.4740 c6         1 ZKV      -0.112900
     11 C11        112.3120   117.5350    92.2350 c6         1 ZKV       0.099500
     12 C12        109.8920   117.5860    92.2830 c6         1 ZKV       0.099500
     13 C13        109.8770   118.4900    93.5070 c6         1 ZKV      -0.112900
     14 C15        109.8430   114.6690    92.4630 ca         1 ZKV      -0.152600
     15 C16        109.4020   113.7100    91.5570 ca         1 ZKV      -0.039000
     16 C17        108.2830   112.9420    91.8350 ca         1 ZKV      -0.153000
     17 C18        107.6290   113.1160    93.0380 ca         1 ZKV       0.196000
     18 C19        108.0690   114.0500    93.9620 ca         1 ZKV       0.057000
     19 C20        109.1750   114.8300    93.6720 ca         1 ZKV      -0.056000
     20 F01        106.5580   112.3760    93.3240 f          1 ZKV      -0.157000
     21 F02        111.1690   120.2400    92.5770 f          1 ZKV      -0.276000
     22 N01        108.7880   123.3460    97.5090 nb         1 ZKV      -0.676000
     23 N02        110.0730   120.9650    95.0900 n7         1 ZKV      -0.875400
     24 N03        111.0850   116.7570    92.2630 n          1 ZKV      -0.411800
     25 O01        112.1250   114.7730    91.9330 o          1 ZKV      -0.590100
     26 CL01       107.2340   114.2250    95.4580 cl         1 ZKV      -0.165000
     27 H1         104.4570   124.1390    97.7140 hc         1 ZKV       0.044700
     28 H2         105.5150   125.4810    98.1390 hc         1 ZKV       0.044700
     29 H3         104.9570   125.2840    96.4800 hc         1 ZKV       0.044700
     30 H4         105.5580   122.7210    95.5210 ha         1 ZKV       0.117000
     31 H5         107.5900   121.3700    95.0890 ha         1 ZKV       0.137000
     32 H6         107.7730   124.8190    98.5140 h4         1 ZKV       0.017100
     33 H7         110.0570   120.8280    97.1520 h1         1 ZKV       0.052200
     34 H8         110.8720   122.2690    96.5850 h1         1 ZKV       0.052200
     35 H9         111.2320   119.3840    95.7590 h1         1 ZKV       0.043200
     36 H10        112.1800   120.6350    94.9710 h1         1 ZKV       0.043200
     37 H11        112.4730   117.7840    94.3580 hc         1 ZKV       0.065200
     38 H12        113.2840   119.0380    93.4320 hc         1 ZKV       0.065200
     39 H13        113.1670   116.8670    92.2020 h1         1 ZKV       0.063450
     40 H14        112.3360   118.1400    91.3230 h1         1 ZKV       0.063450
     41 H15        109.8810   118.1900    91.3700 h1         1 ZKV       0.063450
     42 H16        108.9960   116.9720    92.2550 h1         1 ZKV       0.063450
     43 H17        109.0100   119.1500    93.4620 hc         1 ZKV       0.065200
     44 H18        109.7660   117.8820    94.4090 hc         1 ZKV       0.065200
     45 H19        109.9230   113.5650    90.6210 ha         1 ZKV       0.136000
     46 H20        107.9230   112.2060    91.1280 ha         1 ZKV       0.141000
     47 H21        109.5180   115.5520    94.4020 ha         1 ZKV       0.135000
     48 H22        110.0840   121.6740    94.3680 hn         1 ZKV       0.425000
     49 C14        111.1140   115.4130    92.1860 c          1 ZKV       0.623700
@<TRIPOS>BOND
     1     1     2 1   
     2     1    27 1   
     3     1    28 1   
     4     1    29 1   
     5     2     3 ar  
     6     2     6 ar  
     7     3     4 ar  
     8     3    30 1   
     9     4     5 ar  
    10     4    31 1   
    11     5     7 1   
    12     5    22 ar  
    13     6    22 ar  
    14     6    32 1   
    15     7    23 1   
    16     7    33 1   
    17     7    34 1   
    18     8     9 1   
    19     8    23 1   
    20     8    35 1   
    21     8    36 1   
    22     9    10 1   
    23     9    13 1   
    24     9    21 1   
    25    10    11 1   
    26    10    37 1   
    27    10    38 1   
    28    11    24 1   
    29    11    39 1   
    30    11    40 1   
    31    12    13 1   
    32    12    24 1   
    33    12    41 1   
    34    12    42 1   
    35    13    43 1   
    36    13    44 1   
    37    14    15 ar  
    38    14    19 ar  
    39    14    49 1   
    40    15    16 ar  
    41    15    45 1   
    42    16    17 ar  
    43    16    46 1   
    44    17    18 ar  
    45    17    20 1   
    46    18    19 ar  
    47    18    26 1   
    48    19    47 1   
    49    23    48 1   
    50    24    49 1   
    51    25    49 2   
@<TRIPOS>SUBSTRUCTURE
     1 ZKV         1 TEMP              0 ****  ****    0 ROOT
