@<TRIPOS>MOLECULE
ZKW
   26    27     1     0     0
SMALL
No Charge or Current Charge


@<TRIPOS>ATOM
      1 O3          10.6370    31.9680     1.9760 o          1 ZKW      -0.738000
      2 C11         10.3270    32.3000     0.8410 c          1 ZKW       0.732600
      3 O2           9.3510    32.9940     0.6060 o          1 ZKW      -0.738000
      4 C7          11.1740    31.8390    -0.2920 cc         1 ZKW      -0.223600
      5 C8          12.2960    31.0600    -0.1780 cd         1 ZKW      -0.193000
      6 C9          12.8310    30.8350    -1.4690 cd         1 ZKW       0.193500
      7 C10         14.0830    30.0130    -1.7680 c          1 ZKW       0.625500
      8 O1          14.4640    29.8780    -2.9270 o          1 ZKW      -0.740500
      9 O           14.6900    29.4980    -0.8350 o          1 ZKW      -0.740500
     10 N1          12.0860    31.4430    -2.3950 nc         1 ZKW      -0.564800
     11 N           11.0780    32.0530    -1.6680 na         1 ZKW       0.088800
     12 C6          10.0450    32.8400    -2.3780 c3         1 ZKW       0.142900
     13 C2          10.2500    34.3610    -2.3950 ca         1 ZKW      -0.018300
     14 C1          11.4380    34.9590    -1.9110 ca         1 ZKW      -0.053000
     15 C3           9.2330    35.1950    -2.9150 ca         1 ZKW       0.126000
     16 Cl1          7.7340    34.5150    -3.5520 cl         1 ZKW      -0.242000
     17 C4           9.3970    36.5900    -2.9430 ca         1 ZKW      -0.117000
     18 C5          10.5760    37.1690    -2.4550 ca         1 ZKW       0.109000
     19 Cl          10.7780    38.9150    -2.4920 cl         1 ZKW      -0.266000
     20 C           11.5970    36.3560    -1.9410 ca         1 ZKW      -0.105000
     21 H8          12.7130    30.6770     0.7480 ha         1 ZKW       0.144000
     22 H61C         9.9980    32.4850    -3.4150 h1         1 ZKW       0.084200
     23 H62C         9.0750    32.6100    -1.9240 h1         1 ZKW       0.084200
     24 HA          12.2480    34.3520    -1.5120 ha         1 ZKW       0.168000
     25 H           12.5120    36.8070    -1.5660 ha         1 ZKW       0.122000
     26 H4           8.6090    37.2210    -3.3440 ha         1 ZKW       0.118000
@<TRIPOS>BOND
     1     1     2 1   
     2     2     3 1   
     3     2     4 1   
     4     4     5 2   
     5     4    11 1   
     6     5     6 1   
     7     5    21 1   
     8     6     7 1   
     9     6    10 2   
    10     7     8 1   
    11     7     9 1   
    12    10    11 1   
    13    11    12 1   
    14    12    13 1   
    15    12    22 1   
    16    12    23 1   
    17    13    14 ar  
    18    13    15 ar  
    19    14    20 ar  
    20    14    24 1   
    21    15    16 1   
    22    15    17 ar  
    23    17    18 ar  
    24    17    26 1   
    25    18    19 1   
    26    18    20 ar  
    27    20    25 1   
@<TRIPOS>SUBSTRUCTURE
     1 ZKW         1 TEMP              0 ****  ****    0 ROOT
