@<TRIPOS>MOLECULE
ZKW
   26    27     1     0     0
SMALL
abcg2


@<TRIPOS>ATOM
      1 O3          10.5090    31.8840     1.9930 o          1 ZKW      -0.738000
      2 C11         10.1880    32.2440     0.8350 c          1 ZKW       0.732600
      3 O2           9.1760    32.9120     0.5070 o          1 ZKW      -0.738000
      4 C7          11.1380    31.8150    -0.2600 cc         1 ZKW      -0.223600
      5 C8          12.3290    31.1190    -0.1490 cd         1 ZKW      -0.193000
      6 C9          12.8310    30.9880    -1.4560 cd         1 ZKW       0.193500
      7 C10         14.1100    30.3090    -1.8930 c          1 ZKW       0.625500
      8 O1          14.3900    30.3180    -3.1170 o          1 ZKW      -0.740500
      9 O           14.7910    29.7880    -0.9710 o          1 ZKW      -0.740500
     10 N1          11.9970    31.5670    -2.3290 nc         1 ZKW      -0.564800
     11 N           10.9790    32.0540    -1.5990 na         1 ZKW       0.088800
     12 C6           9.9440    32.8060    -2.2760 c3         1 ZKW       0.142900
     13 C2          10.2310    34.2870    -2.3480 ca         1 ZKW      -0.018300
     14 C1          11.4180    34.8390    -1.8720 ca         1 ZKW      -0.053000
     15 C3           9.2990    35.1640    -2.9030 ca         1 ZKW       0.126000
     16 CL1          7.7830    34.5410    -3.5190 cl         1 ZKW      -0.242000
     17 C4           9.5200    36.5310    -2.9910 ca         1 ZKW      -0.117000
     18 C5          10.7170    37.0350    -2.5060 ca         1 ZKW       0.109000
     19 CL          11.0180    38.7550    -2.6070 cl         1 ZKW      -0.266000
     20 C           11.6740    36.2020    -1.9450 ca         1 ZKW      -0.105000
     21 H8          12.7700    30.7550     0.7610 ha         1 ZKW       0.144000
     22 H61C         9.8580    32.3940    -3.2820 h1         1 ZKW       0.084200
     23 H62C         9.0100    32.6450    -1.7480 h1         1 ZKW       0.084200
     24 HA          12.1640    34.1910    -1.4330 ha         1 ZKW       0.168000
     25 H           12.6020    36.6080    -1.5700 ha         1 ZKW       0.122000
     26 H4           8.7760    37.1820    -3.4260 ha         1 ZKW       0.118000
@<TRIPOS>BOND
     1     1     2 1   
     2     2     3 1   
     3     2     4 1   
     4     4     5 2   
     5     4    11 1   
     6     5     6 1   
     7     5    21 1   
     8     6     7 1   
     9     6    10 2   
    10     7     8 1   
    11     7     9 1   
    12    10    11 1   
    13    11    12 1   
    14    12    13 1   
    15    12    22 1   
    16    12    23 1   
    17    13    14 ar  
    18    13    15 ar  
    19    14    20 ar  
    20    14    24 1   
    21    15    16 1   
    22    15    17 ar  
    23    17    18 ar  
    24    17    26 1   
    25    18    19 1   
    26    18    20 ar  
    27    20    25 1   
@<TRIPOS>SUBSTRUCTURE
     1 ZKW         1 TEMP              0 ****  ****    0 ROOT
