@<TRIPOS>MOLECULE
ZKZ
   46    48     1     0     0
SMALL
abcg2


@<TRIPOS>ATOM
      1 N1         -16.0700    17.3540    26.1360 ns         1 ZKZ      -0.518900
      2 N3         -19.2460    13.4790    25.8630 n          1 ZKZ      -0.410800
      3 C4         -18.9760    13.7300    27.2760 c6         1 ZKZ       0.092500
      4 C5         -18.1230    13.8580    25.0170 c6         1 ZKZ       0.092500
      5 C6         -17.7950    15.3370    25.2090 c6         1 ZKZ       0.084500
      6 C7         -20.3040    12.8180    25.3340 c          1 ZKZ       0.546600
      7 C8         -21.5300    12.6510    26.1350 cc         1 ZKZ       0.066500
      8 C10        -23.5210    12.0660    26.9840 cd         1 ZKZ      -0.161000
      9 C13        -25.5800    14.1620    30.0460 ca         1 ZKZ       0.133100
     10 C15        -25.8860    15.8050    31.7770 ca         1 ZKZ      -0.074500
     11 C17        -27.5840    14.1540    31.3830 ca         1 ZKZ      -0.074500
     12 C1         -15.2390    18.4790    26.5270 c3         1 ZKZ       0.103300
     13 C11        -23.0740    13.1850    27.6140 cc         1 ZKZ       0.145300
     14 C12        -23.6130    14.0470    28.6980 c3         1 ZKZ       0.135300
     15 C14        -25.1070    15.2670    30.7530 ca         1 ZKZ      -0.164000
     16 C16        -27.1210    15.2580    32.0990 ca         1 ZKZ      -0.142000
     17 C18        -26.8220    13.6060    30.3620 ca         1 ZKZ      -0.164000
     18 C2         -16.8150    16.6920    27.0640 c          1 ZKZ       0.645100
     19 C3         -18.6860    15.2040    27.5000 c6         1 ZKZ       0.084500
     20 C9         -22.5250    11.7270    26.0200 cd         1 ZKZ      -0.101000
     21 N2         -17.6090    15.6560    26.6200 n          1 ZKZ      -0.422800
     22 O1         -16.7450    16.9870    28.2640 o          1 ZKZ      -0.643100
     23 O2         -20.2940    12.3630    24.1840 o          1 ZKZ      -0.595100
     24 O3         -24.9020    13.5560    29.0270 os         1 ZKZ      -0.348100
     25 O4         -21.8680    13.5580    27.1130 os         1 ZKZ      -0.253000
     26 H4         -16.3120    17.2890    25.1630 hn         1 ZKZ       0.307500
     27 H8         -18.0970    13.1400    27.5560 h1         1 ZKZ       0.066700
     28 H7         -19.8080    13.4160    27.8920 h1         1 ZKZ       0.066700
     29 H9         -17.2520    13.2490    25.2780 h1         1 ZKZ       0.066700
     30 H10        -18.3810    13.6690    23.9800 h1         1 ZKZ       0.066700
     31 H12        -16.8780    15.5330    24.6580 h1         1 ZKZ       0.055950
     32 H11        -18.6000    15.9450    24.7770 h1         1 ZKZ       0.055950
     33 H14        -24.4450    11.5500    27.1800 ha         1 ZKZ       0.158000
     34 H18        -25.5130    16.6630    32.3230 ha         1 ZKZ       0.115500
     35 H20        -28.5450    13.7150    31.6220 ha         1 ZKZ       0.115500
     36 H3         -14.6920    18.8170    25.6500 h1         1 ZKZ       0.041033
     37 H2         -15.8310    19.3100    26.9190 h1         1 ZKZ       0.041033
     38 H1         -14.5250    18.1770    27.2920 h1         1 ZKZ       0.041033
     39 H16        -22.9510    14.0130    29.5710 h1         1 ZKZ       0.056700
     40 H15        -23.6660    15.0890    28.3590 h1         1 ZKZ       0.056700
     41 H17        -24.1510    15.7120    30.5210 ha         1 ZKZ       0.122000
     42 H19        -27.7170    15.6830    32.8950 ha         1 ZKZ       0.117000
     43 H21        -27.1710    12.7490    29.8010 ha         1 ZKZ       0.122000
     44 H6         -18.3810    15.3700    28.5280 h1         1 ZKZ       0.055950
     45 H5         -19.5980    15.7850    27.3080 h1         1 ZKZ       0.055950
     46 H13        -22.5400    10.9030    25.3270 ha         1 ZKZ       0.158000
@<TRIPOS>BOND
     1     1    12 1   
     2     1    18 1   
     3     1    26 1   
     4     2     3 1   
     5     2     4 1   
     6     2     6 1   
     7     3    19 1   
     8     3    27 1   
     9     3    28 1   
    10     4     5 1   
    11     4    29 1   
    12     4    30 1   
    13     5    21 1   
    14     5    31 1   
    15     5    32 1   
    16     6     7 1   
    17     6    23 2   
    18     7    20 2   
    19     7    25 1   
    20     8    13 2   
    21     8    20 1   
    22     8    33 1   
    23     9    15 ar  
    24     9    17 ar  
    25     9    24 1   
    26    10    15 ar  
    27    10    16 ar  
    28    10    34 1   
    29    11    16 ar  
    30    11    17 ar  
    31    11    35 1   
    32    12    36 1   
    33    12    37 1   
    34    12    38 1   
    35    13    14 1   
    36    13    25 1   
    37    14    24 1   
    38    14    39 1   
    39    14    40 1   
    40    15    41 1   
    41    16    42 1   
    42    17    43 1   
    43    18    21 1   
    44    18    22 2   
    45    19    21 1   
    46    19    44 1   
    47    19    45 1   
    48    20    46 1   
@<TRIPOS>SUBSTRUCTURE
     1 ZKZ         1 TEMP              0 ****  ****    0 ROOT
