@<TRIPOS>MOLECULE
ZKZ
   46    48     1     0     0
SMALL
No Charge or Current Charge


@<TRIPOS>ATOM
      1 N1         -15.6110    17.1410    26.3600 ns         1 ZKZ      -0.518900
      2 N3         -19.4810    13.7690    25.7940 n          1 ZKZ      -0.410800
      3 C4         -19.2970    13.9940    27.2540 c6         1 ZKZ       0.092500
      4 C5         -18.1970    13.9330    25.0660 c6         1 ZKZ       0.092500
      5 C6         -17.4660    15.2680    25.3590 c6         1 ZKZ       0.084500
      6 C7         -20.4550    12.8630    25.2920 c          1 ZKZ       0.546600
      7 C8         -21.8180    12.8750    25.9180 cc         1 ZKZ       0.066500
      8 C10        -23.9640    12.4050    26.3460 cd         1 ZKZ      -0.161000
      9 C13        -25.4490    14.0280    30.2610 ca         1 ZKZ       0.133100
     10 C15        -26.6410    15.8110    31.4270 ca         1 ZKZ      -0.074500
     11 C17        -26.4640    13.6050    32.4390 ca         1 ZKZ      -0.074500
     12 C1         -14.6320    18.1920    26.6440 c3         1 ZKZ       0.103300
     13 C11        -23.6000    13.4970    27.0840 cc         1 ZKZ       0.145300
     14 C12        -24.3830    14.3400    28.0550 c3         1 ZKZ       0.135300
     15 C14        -25.9070    15.3630    30.3130 ca         1 ZKZ      -0.164000
     16 C16        -26.9180    14.9330    32.4880 ca         1 ZKZ      -0.142000
     17 C18        -25.7310    13.1560    31.3260 ca         1 ZKZ      -0.164000
     18 C2         -16.5750    16.7210    27.2430 c          1 ZKZ       0.645100
     19 C3         -18.6440    15.3550    27.5890 c6         1 ZKZ       0.084500
     20 C9         -22.8360    12.0150    25.5950 cd         1 ZKZ      -0.101000
     21 N2         -17.4310    15.6950    26.7920 n          1 ZKZ      -0.422800
     22 O1         -16.6760    17.2110    28.3570 o          1 ZKZ      -0.643100
     23 O2         -20.1850    12.1260    24.3490 o          1 ZKZ      -0.595100
     24 O3         -24.7250    13.5300    29.1970 os         1 ZKZ      -0.348100
     25 O4         -22.2840    13.8120    26.8220 os         1 ZKZ      -0.253000
     26 H4         -15.5860    16.6870    25.4570 hn         1 ZKZ       0.307500
     27 H8         -18.6360    13.2010    27.6340 h1         1 ZKZ       0.066700
     28 H7         -20.2260    13.9020    27.8220 h1         1 ZKZ       0.066700
     29 H9         -17.5330    13.1010    25.3450 h1         1 ZKZ       0.066700
     30 H10        -18.3650    13.8600    23.9820 h1         1 ZKZ       0.066700
     31 H12        -16.4440    15.1750    24.9670 h1         1 ZKZ       0.055950
     32 H11        -17.9620    16.0630    24.7840 h1         1 ZKZ       0.055950
     33 H14        -24.9440    11.9370    26.3400 ha         1 ZKZ       0.158000
     34 H18        -26.9940    16.8400    31.4670 ha         1 ZKZ       0.115500
     35 H20        -26.6790    12.9240    33.2610 ha         1 ZKZ       0.115500
     36 H3         -13.9800    18.3310    25.7720 h1         1 ZKZ       0.041033
     37 H2         -15.1520    19.1330    26.8620 h1         1 ZKZ       0.041033
     38 H1         -14.0200    17.9030    27.5090 h1         1 ZKZ       0.041033
     39 H16        -23.7750    15.2020    28.3580 h1         1 ZKZ       0.056700
     40 H15        -25.2880    14.7100    27.5550 h1         1 ZKZ       0.056700
     41 H17        -25.7070    16.0620    29.5070 ha         1 ZKZ       0.122000
     42 H19        -27.4860    15.2820    33.3480 ha         1 ZKZ       0.117000
     43 H21        -25.3790    12.1280    31.2890 ha         1 ZKZ       0.122000
     44 H6         -18.3970    15.3610    28.6600 h1         1 ZKZ       0.055950
     45 H5         -19.3910    16.1450    27.4280 h1         1 ZKZ       0.055950
     46 H13        -22.7780    11.1910    24.8910 ha         1 ZKZ       0.158000
@<TRIPOS>BOND
     1     1    12 1   
     2     1    18 1   
     3     1    26 1   
     4     2     3 1   
     5     2     4 1   
     6     2     6 1   
     7     3    19 1   
     8     3    27 1   
     9     3    28 1   
    10     4     5 1   
    11     4    29 1   
    12     4    30 1   
    13     5    21 1   
    14     5    31 1   
    15     5    32 1   
    16     6     7 1   
    17     6    23 2   
    18     7    20 2   
    19     7    25 1   
    20     8    13 2   
    21     8    20 1   
    22     8    33 1   
    23     9    15 ar  
    24     9    17 ar  
    25     9    24 1   
    26    10    15 ar  
    27    10    16 ar  
    28    10    34 1   
    29    11    16 ar  
    30    11    17 ar  
    31    11    35 1   
    32    12    36 1   
    33    12    37 1   
    34    12    38 1   
    35    13    14 1   
    36    13    25 1   
    37    14    24 1   
    38    14    39 1   
    39    14    40 1   
    40    15    41 1   
    41    16    42 1   
    42    17    43 1   
    43    18    21 1   
    44    18    22 2   
    45    19    21 1   
    46    19    44 1   
    47    19    45 1   
    48    20    46 1   
@<TRIPOS>SUBSTRUCTURE
     1 ZKZ         1 TEMP              0 ****  ****    0 ROOT
