@<TRIPOS>MOLECULE
ZL1
   57    61     1     0     0
SMALL
bcc


@<TRIPOS>ATOM
      1 C1         -21.1610   -19.4270    -3.7070 ca         1 ZL1       0.108600
      2 C12        -21.0990   -19.1530    -5.0740 ca         1 ZL1      -0.194000
      3 C13        -20.1400   -18.2940    -5.5790 ca         1 ZL1      -0.073000
      4 C14        -19.2320   -17.6860    -4.7300 ca         1 ZL1       0.019100
      5 C15        -17.0380   -17.1320    -5.3720 ca         1 ZL1       0.193100
      6 C16        -16.1660   -16.1320    -5.7920 ca         1 ZL1      -0.305300
      7 C17        -14.8450   -16.4870    -5.9750 ca         1 ZL1       0.460200
      8 C18        -15.2130   -18.6480    -5.3720 ca         1 ZL1       0.573200
      9 C19        -15.1310   -21.0620    -4.7560 c          1 ZL1       0.716100
     10 N1         -14.3660   -17.7070    -5.7720 nb         1 ZL1      -0.757000
     11 O1         -18.3310   -16.7730    -5.2060 os         1 ZL1      -0.227200
     12 F1         -31.0390   -21.4790     0.3830 f          1 ZL1      -0.135900
     13 N          -22.1380   -20.3260    -3.2730 ns         1 ZL1      -0.477100
     14 C          -22.6880   -20.4310    -2.0320 c          1 ZL1       0.705300
     15 O          -22.3950   -19.7220    -1.0920 o          1 ZL1      -0.536100
     16 C1A        -14.1330   -22.1550    -4.6470 cx         1 ZL1      -0.249700
     17 C1B        -14.3040   -23.1550    -3.5310 cx         1 ZL1      -0.094900
     18 C1C        -14.5920   -23.5630    -4.9260 cx         1 ZL1      -0.094900
     19 C1D        -16.5730   -18.4190    -5.1590 ca         1 ZL1      -0.339300
     20 C1E        -19.2960   -17.9760    -3.3770 ca         1 ZL1       0.160900
     21 C1F        -20.2390   -18.8310    -2.8460 ca         1 ZL1      -0.181000
     22 C1G        -23.6860   -21.5350    -1.9240 cc         1 ZL1      -0.305400
     23 C1H        -23.3500   -22.8170    -2.2450 cd         1 ZL1       0.005000
     24 C1I        -24.2650   -23.8760    -2.0740 cd         1 ZL1      -0.267000
     25 C1K        -27.1970   -22.0590    -0.8570 ca         1 ZL1      -0.006400
     26 C1L        -25.5030   -23.5770    -1.6100 cc         1 ZL1       0.052600
     27 C1M        -28.1500   -21.6110    -1.7600 ca         1 ZL1      -0.081000
     28 C1N        -29.4550   -21.4090    -1.3430 ca         1 ZL1      -0.165000
     29 C1O        -29.7760   -21.6630    -0.0220 ca         1 ZL1       0.150900
     30 C1P        -28.8390   -22.1050     0.8930 ca         1 ZL1      -0.165000
     31 C1Q        -27.5340   -22.3000     0.4650 ca         1 ZL1      -0.081000
     32 C1R        -25.0000   -21.2070    -1.4150 c          1 ZL1       0.716700
     33 F          -18.3950   -17.4180    -2.5620 f          1 ZL1      -0.123900
     34 N12        -14.6010   -19.8810    -5.1850 ns         1 ZL1      -0.552400
     35 N13        -25.8610   -22.3030    -1.3060 n          1 ZL1      -0.263200
     36 O12        -16.3090   -21.2150    -4.4840 o          1 ZL1      -0.586100
     37 O13        -25.3880   -20.0890    -1.1190 o          1 ZL1      -0.581500
     38 H1         -21.8070   -19.6160    -5.7500 ha         1 ZL1       0.137000
     39 H2         -20.1030   -18.0830    -6.6400 ha         1 ZL1       0.150000
     40 H3         -16.5060   -15.1210    -5.9680 ha         1 ZL1       0.159000
     41 H4         -14.1300   -15.7410    -6.3030 h4         1 ZL1       0.021100
     42 H5         -22.5700   -20.8740    -4.0020 hn         1 ZL1       0.320500
     43 H6         -13.1140   -21.9130    -4.9260 hc         1 ZL1       0.090700
     44 H7         -15.1390   -23.0090    -2.8580 hc         1 ZL1       0.082950
     45 H8         -13.3980   -23.5110    -3.0600 hc         1 ZL1       0.082950
     46 H9         -15.6250   -23.6990    -5.2170 hc         1 ZL1       0.082950
     47 H10        -13.8880   -24.2080    -5.4360 hc         1 ZL1       0.082950
     48 H11        -17.2240   -19.2190    -4.8480 ha         1 ZL1       0.184000
     49 H12        -20.2330   -19.0260    -1.7850 ha         1 ZL1       0.182000
     50 H13        -22.3580   -23.0360    -2.6230 ha         1 ZL1       0.144000
     51 H14        -24.0020   -24.8950    -2.3080 ha         1 ZL1       0.158000
     52 H15        -26.2660   -24.3280    -1.4620 h4         1 ZL1       0.158000
     53 H16        -27.8770   -21.4270    -2.7910 ha         1 ZL1       0.149000
     54 H17        -30.2110   -21.0650    -2.0360 ha         1 ZL1       0.157500
     55 H18        -29.1190   -22.2940     1.9210 ha         1 ZL1       0.157500
     56 H19        -26.7820   -22.6440     1.1640 ha         1 ZL1       0.149000
     57 H20        -13.6110   -19.8610    -5.3850 hn         1 ZL1       0.334500
@<TRIPOS>BOND
     1     1     2 ar  
     2     1    13 1   
     3     1    21 ar  
     4     2     3 ar  
     5     2    38 1   
     6     3     4 ar  
     7     3    39 1   
     8     4    11 1   
     9     4    20 ar  
    10     5     6 ar  
    11     5    11 1   
    12     5    19 ar  
    13     6     7 ar  
    14     6    40 1   
    15     7    10 ar  
    16     7    41 1   
    17     8    10 ar  
    18     8    19 ar  
    19     8    34 1   
    20     9    16 1   
    21     9    34 1   
    22     9    36 2   
    23    12    29 1   
    24    13    14 1   
    25    13    42 1   
    26    14    15 2   
    27    14    22 1   
    28    16    17 1   
    29    16    18 1   
    30    16    43 1   
    31    17    18 1   
    32    17    44 1   
    33    17    45 1   
    34    18    46 1   
    35    18    47 1   
    36    19    48 1   
    37    20    21 ar  
    38    20    33 1   
    39    21    49 1   
    40    22    23 2   
    41    22    32 1   
    42    23    24 1   
    43    23    50 1   
    44    24    26 2   
    45    24    51 1   
    46    25    27 ar  
    47    25    31 ar  
    48    25    35 1   
    49    26    35 1   
    50    26    52 1   
    51    27    28 ar  
    52    27    53 1   
    53    28    29 ar  
    54    28    54 1   
    55    29    30 ar  
    56    30    31 ar  
    57    30    55 1   
    58    31    56 1   
    59    32    35 1   
    60    32    37 2   
    61    34    57 1   
@<TRIPOS>SUBSTRUCTURE
     1 ZL1         1 TEMP              0 ****  ****    0 ROOT
