@<TRIPOS>MOLECULE
ZL1
   57    61     1     0     0
SMALL
No Charge or Current Charge


@<TRIPOS>ATOM
      1 C1         -21.2500   -19.1410    -3.8500 ca         1 ZL1       0.016000
      2 C12        -20.4750   -19.5170    -4.9640 ca         1 ZL1      -0.176000
      3 C13        -19.3810   -18.7370    -5.3810 ca         1 ZL1      -0.055000
      4 C14        -19.0400   -17.5700    -4.6730 ca         1 ZL1       0.019100
      5 C15        -16.7710   -17.3130    -5.4800 ca         1 ZL1       0.193100
      6 C16        -16.0350   -16.6610    -6.4710 ca         1 ZL1      -0.222000
      7 C17        -14.8070   -17.2030    -6.8690 ca         1 ZL1       0.394900
      8 C18        -15.0010   -18.9430    -5.3610 ca         1 ZL1       0.507900
      9 C19        -14.6020   -20.9300    -3.8610 c          1 ZL1       0.649100
     10 N1         -14.2940   -18.3300    -6.3280 nb         1 ZL1      -0.757000
     11 O1         -17.9760   -16.7870    -5.0730 os         1 ZL1      -0.227200
     12 F1         -30.8310   -22.4690     1.8240 f          1 ZL1      -0.171000
     13 N          -22.3340   -19.9880    -3.4910 ns         1 ZL1      -0.151000
     14 C          -23.3920   -19.8330    -2.6000 c          1 ZL1       0.638300
     15 O          -23.5510   -18.7930    -1.9760 o          1 ZL1      -0.536100
     16 C1A        -13.6130   -22.0660    -3.7380 cx         1 ZL1      -0.249700
     17 C1B        -14.1360   -23.4780    -3.5590 cx         1 ZL1      -0.094900
     18 C1C        -13.5070   -23.0700    -4.8700 cx         1 ZL1      -0.094900
     19 C1D        -16.2410   -18.4750    -4.9020 ca         1 ZL1      -0.256000
     20 C1E        -19.8120   -17.1860    -3.5610 ca         1 ZL1       0.196000
     21 C1F        -20.9050   -17.9650    -3.1460 ca         1 ZL1      -0.163000
     22 C1G        -24.3010   -21.0240    -2.4980 cc         1 ZL1      -0.305400
     23 C1H        -24.0610   -22.1730    -3.2510 cd         1 ZL1      -0.045000
     24 C1I        -24.9450   -23.2890    -3.1310 cd         1 ZL1      -0.317000
     25 C1K        -27.4300   -22.1640    -0.5930 ca         1 ZL1      -0.006400
     26 C1L        -26.0320   -23.2200    -2.2960 cc         1 ZL1       0.002600
     27 C1M        -28.3420   -21.0870    -0.4820 ca         1 ZL1      -0.063000
     28 C1N        -29.4790   -21.1860     0.3410 ca         1 ZL1      -0.147000
     29 C1O        -29.7370   -22.3740     1.0370 ca         1 ZL1       0.186000
     30 C1P        -28.8750   -23.4690     0.9030 ca         1 ZL1      -0.147000
     31 C1Q        -27.7390   -23.3730     0.0790 ca         1 ZL1      -0.063000
     32 C1R        -25.4600   -20.9560    -1.5590 c          1 ZL1       0.574200
     33 F          -19.5010   -16.0640    -2.8720 f          1 ZL1      -0.159000
     34 N12        -14.3350   -20.0830    -4.9070 ns         1 ZL1      -0.318900
     35 N13        -26.3200   -22.0910    -1.5270 n          1 ZL1      -0.196200
     36 O12        -15.5320   -20.7950    -3.0790 o          1 ZL1      -0.586100
     37 O13        -25.6680   -20.0020    -0.8210 o          1 ZL1      -0.506000
     38 H1         -20.7240   -20.4190    -5.5190 ha         1 ZL1       0.119000
     39 H2         -18.8050   -19.0390    -6.2530 ha         1 ZL1       0.132000
     40 H3         -16.4070   -15.7520    -6.9340 ha         1 ZL1       0.141000
     41 H4         -14.2130   -16.7210    -7.6450 h4         1 ZL1       0.021100
     42 H5         -22.3250   -20.8720    -3.9780 hn         1 ZL1       0.154000
     43 H6         -12.6950   -21.8140    -3.2150 hc         1 ZL1       0.090700
     44 H7         -15.2130   -23.6320    -3.5420 hc         1 ZL1       0.082950
     45 H8         -13.5740   -24.1510    -2.9150 hc         1 ZL1       0.082950
     46 H9         -14.1650   -22.9550    -5.7300 hc         1 ZL1       0.082950
     47 H10        -12.5230   -23.4690    -5.1060 hc         1 ZL1       0.082950
     48 H11        -16.7850   -18.9910    -4.1210 ha         1 ZL1       0.166000
     49 H12        -21.4570   -17.6400    -2.2720 ha         1 ZL1       0.164000
     50 H13        -23.2220   -22.2710    -3.9380 ha         1 ZL1       0.194000
     51 H14        -24.7700   -24.1900    -3.7170 ha         1 ZL1       0.208000
     52 H15        -26.7680   -24.0110    -2.1960 h4         1 ZL1       0.208000
     53 H16        -28.1840   -20.1710    -1.0450 ha         1 ZL1       0.131000
     54 H17        -30.1650   -20.3480     0.4280 ha         1 ZL1       0.139500
     55 H18        -29.0880   -24.3930     1.4350 ha         1 ZL1       0.139500
     56 H19        -27.0790   -24.2340    -0.0010 ha         1 ZL1       0.131000
     57 H20        -13.5140   -20.3150    -5.4460 hn         1 ZL1       0.168000
@<TRIPOS>BOND
     1     1     2 ar  
     2     1    13 1   
     3     1    21 ar  
     4     2     3 ar  
     5     2    38 1   
     6     3     4 ar  
     7     3    39 1   
     8     4    11 1   
     9     4    20 ar  
    10     5     6 ar  
    11     5    11 1   
    12     5    19 ar  
    13     6     7 ar  
    14     6    40 1   
    15     7    10 ar  
    16     7    41 1   
    17     8    10 ar  
    18     8    19 ar  
    19     8    34 1   
    20     9    16 1   
    21     9    34 1   
    22     9    36 2   
    23    12    29 1   
    24    13    14 1   
    25    13    42 1   
    26    14    15 2   
    27    14    22 1   
    28    16    17 1   
    29    16    18 1   
    30    16    43 1   
    31    17    18 1   
    32    17    44 1   
    33    17    45 1   
    34    18    46 1   
    35    18    47 1   
    36    19    48 1   
    37    20    21 ar  
    38    20    33 1   
    39    21    49 1   
    40    22    23 2   
    41    22    32 1   
    42    23    24 1   
    43    23    50 1   
    44    24    26 2   
    45    24    51 1   
    46    25    27 ar  
    47    25    31 ar  
    48    25    35 1   
    49    26    35 1   
    50    26    52 1   
    51    27    28 ar  
    52    27    53 1   
    53    28    29 ar  
    54    28    54 1   
    55    29    30 ar  
    56    30    31 ar  
    57    30    55 1   
    58    31    56 1   
    59    32    35 1   
    60    32    37 2   
    61    34    57 1   
@<TRIPOS>SUBSTRUCTURE
     1 ZL1         1 TEMP              0 ****  ****    0 ROOT
