@<TRIPOS>MOLECULE
ZL3
   41    42     1     0     0
SMALL
abcg2


@<TRIPOS>ATOM
      1 N1         -17.8390    16.0990    26.5820 n          1 ZL3      -0.433800
      2 C4         -18.2810    14.1630    25.1450 c6         1 ZL3       0.080000
      3 C5         -19.3170    14.2990    27.3850 c6         1 ZL3       0.103700
      4 C6         -19.0120    15.7950    27.3880 c6         1 ZL3       0.100000
      5 C7         -18.2760    13.4830    28.1500 c3         1 ZL3      -0.110100
      6 C10        -23.3260    13.1180    27.5050 cc         1 ZL3       0.144900
      7 C13        -15.6560    19.9180    26.5280 c3         1 ZL3      -0.109100
      8 N          -16.0180    17.4980    26.1530 ns         1 ZL3      -0.514900
      9 C          -13.8450    18.4270    25.5810 c3         1 ZL3      -0.109100
     10 O          -22.1880    13.6460    26.9830 os         1 ZL3      -0.246000
     11 C1         -15.0380    18.5190    26.5260 c3         1 ZL3       0.116700
     12 C11        -23.4270    11.8020    27.1840 cd         1 ZL3      -0.195000
     13 C12        -22.2770    11.4940    26.3990 cd         1 ZL3      -0.108000
     14 C2         -16.9160    17.0040    27.0530 c          1 ZL3       0.655100
     15 C3         -17.9570    15.6530    25.2020 c6         1 ZL3       0.094000
     16 C9         -21.5440    12.6390    26.3090 cc         1 ZL3       0.066500
     17 N2         -19.4330    13.8440    25.9850 n          1 ZL3      -0.398800
     18 O1         -20.1030    12.2310    24.5280 o          1 ZL3      -0.596100
     19 O2         -16.8780    17.3210    28.2490 o          1 ZL3      -0.647100
     20 H8         -18.5150    13.8800    24.1230 h1         1 ZL3       0.065200
     21 H7         -17.4100    13.5840    25.4630 h1         1 ZL3       0.065200
     22 H9         -20.2810    14.1720    27.8640 h1         1 ZL3       0.076700
     23 H11        -19.8800    16.3330    26.9870 h1         1 ZL3       0.066700
     24 H10        -18.8320    16.1310    28.4030 h1         1 ZL3       0.066700
     25 H12        -18.2820    13.7810    29.2000 hc         1 ZL3       0.047700
     26 H13        -18.5110    12.4190    28.0930 hc         1 ZL3       0.047700
     27 H14        -17.2710    13.6390    27.7600 hc         1 ZL3       0.047700
     28 H15        -23.9490    13.7970    28.0610 h4         1 ZL3       0.055100
     29 H19        -16.5070    19.9610    27.2070 hc         1 ZL3       0.041867
     30 H20        -14.9210    20.6600    26.8460 hc         1 ZL3       0.041867
     31 H18        -15.9980    20.1830    25.5240 hc         1 ZL3       0.041867
     32 H4         -16.2310    17.4390    25.1710 hn         1 ZL3       0.300500
     33 H1         -13.0920    19.1680    25.8530 hc         1 ZL3       0.041867
     34 H2         -13.3890    17.4370    25.6230 hc         1 ZL3       0.041867
     35 H          -14.1530    18.6220    24.5500 hc         1 ZL3       0.041867
     36 H3         -14.7120    18.2770    27.5370 h1         1 ZL3       0.081700
     37 H16        -24.2240    11.1330    27.4670 ha         1 ZL3       0.147000
     38 H17        -22.0200    10.5460    25.9570 ha         1 ZL3       0.156000
     39 H5         -18.7410    16.2210    24.6870 h1         1 ZL3       0.047700
     40 H6         -17.0210    15.7940    24.6690 h1         1 ZL3       0.047700
     41 C8         -20.2990    12.8930    25.5540 c          1 ZL3       0.537600
@<TRIPOS>BOND
     1     1     4 1   
     2     1    14 1   
     3     1    15 1   
     4     2    15 1   
     5     2    17 1   
     6     2    20 1   
     7     2    21 1   
     8     3     4 1   
     9     3     5 1   
    10     3    17 1   
    11     3    22 1   
    12     4    23 1   
    13     4    24 1   
    14     5    25 1   
    15     5    26 1   
    16     5    27 1   
    17     6    10 1   
    18     6    12 2   
    19     6    28 1   
    20     7    11 1   
    21     7    29 1   
    22     7    30 1   
    23     7    31 1   
    24     8    11 1   
    25     8    14 1   
    26     8    32 1   
    27     9    11 1   
    28     9    33 1   
    29     9    34 1   
    30     9    35 1   
    31    10    16 1   
    32    11    36 1   
    33    12    13 1   
    34    12    37 1   
    35    13    16 2   
    36    13    38 1   
    37    14    19 2   
    38    15    39 1   
    39    15    40 1   
    40    16    41 1   
    41    17    41 1   
    42    18    41 2   
@<TRIPOS>SUBSTRUCTURE
     1 ZL3         1 TEMP              0 ****  ****    0 ROOT
