@<TRIPOS>MOLECULE
ZL3
   41    42     1     0     0
SMALL
No Charge or Current Charge


@<TRIPOS>ATOM
      1 N1         -17.6070    16.0080    26.8370 n          1 ZL3      -0.433800
      2 C4         -18.2450    14.0990    25.2120 c6         1 ZL3       0.080000
      3 C5         -19.2090    14.1120    27.4980 c6         1 ZL3       0.103700
      4 C6         -18.7520    15.5810    27.6910 c6         1 ZL3       0.100000
      5 C7         -18.1850    13.1410    28.1500 c3         1 ZL3      -0.110100
      6 C10        -23.4470    13.1270    27.6140 cc         1 ZL3       0.144900
      7 C13        -15.8830    20.0770    26.0840 c3         1 ZL3      -0.109100
      8 N          -15.9750    17.6150    26.2650 ns         1 ZL3      -0.514900
      9 C          -13.8350    18.6260    25.5940 c3         1 ZL3      -0.109100
     10 O          -22.1860    13.5670    27.2790 os         1 ZL3      -0.246000
     11 C1         -15.1170    18.7860    26.4320 c3         1 ZL3       0.116700
     12 C11        -23.7510    12.0170    26.8760 cd         1 ZL3      -0.195000
     13 C12        -22.6410    11.7480    26.0500 cd         1 ZL3      -0.108000
     14 C2         -16.8570    17.1420    27.2060 c          1 ZL3       0.655100
     15 C3         -17.6540    15.5180    25.4260 c6         1 ZL3       0.094000
     16 C9         -21.6890    12.6950    26.3270 cc         1 ZL3       0.066500
     17 N2         -19.4320    13.7870    26.0570 n          1 ZL3      -0.398800
     18 O1         -20.1230    12.1300    24.6260 o          1 ZL3      -0.596100
     19 O2         -16.9770    17.6730    28.3000 o          1 ZL3      -0.647100
     20 H8         -18.5040    13.9960    24.1490 h1         1 ZL3       0.065200
     21 H7         -17.4640    13.3550    25.4190 h1         1 ZL3       0.065200
     22 H9         -20.1260    13.9970    28.0800 h1         1 ZL3       0.076700
     23 H11        -19.6040    16.2390    27.4690 h1         1 ZL3       0.066700
     24 H10        -18.5050    15.7320    28.7520 h1         1 ZL3       0.066700
     25 H12        -18.1030    13.3250    29.2280 hc         1 ZL3       0.047700
     26 H13        -18.4950    12.0980    28.0170 hc         1 ZL3       0.047700
     27 H14        -17.1820    13.2510    27.7220 hc         1 ZL3       0.047700
     28 H15        -24.0000    13.6810    28.3610 h4         1 ZL3       0.055100
     29 H19        -16.7690    20.1860    26.7220 hc         1 ZL3       0.041867
     30 H20        -15.2460    20.9570    26.2360 hc         1 ZL3       0.041867
     31 H18        -16.2120    20.0660    25.0380 hc         1 ZL3       0.041867
     32 H4         -15.9340    17.1120    25.3900 hn         1 ZL3       0.300500
     33 H1         -13.1650    19.4810    25.7470 hc         1 ZL3       0.041867
     34 H2         -13.2950    17.7170    25.8840 hc         1 ZL3       0.041867
     35 H          -14.0710    18.5620    24.5250 hc         1 ZL3       0.041867
     36 H3         -14.8160    18.8450    27.4880 h1         1 ZL3       0.081700
     37 H16        -24.6800    11.4580    26.9180 ha         1 ZL3       0.147000
     38 H17        -22.5510    10.9450    25.3230 ha         1 ZL3       0.156000
     39 H5         -18.2600    16.2300    24.8470 h1         1 ZL3       0.047700
     40 H6         -16.6460    15.5220    24.9890 h1         1 ZL3       0.047700
     41 C8         -20.3770    12.8210    25.6080 c          1 ZL3       0.537600
@<TRIPOS>BOND
     1     1     4 1   
     2     1    14 1   
     3     1    15 1   
     4     2    15 1   
     5     2    17 1   
     6     2    20 1   
     7     2    21 1   
     8     3     4 1   
     9     3     5 1   
    10     3    17 1   
    11     3    22 1   
    12     4    23 1   
    13     4    24 1   
    14     5    25 1   
    15     5    26 1   
    16     5    27 1   
    17     6    10 1   
    18     6    12 2   
    19     6    28 1   
    20     7    11 1   
    21     7    29 1   
    22     7    30 1   
    23     7    31 1   
    24     8    11 1   
    25     8    14 1   
    26     8    32 1   
    27     9    11 1   
    28     9    33 1   
    29     9    34 1   
    30     9    35 1   
    31    10    16 1   
    32    11    36 1   
    33    12    13 1   
    34    12    37 1   
    35    13    16 2   
    36    13    38 1   
    37    14    19 2   
    38    15    39 1   
    39    15    40 1   
    40    16    41 1   
    41    17    41 1   
    42    18    41 2   
@<TRIPOS>SUBSTRUCTURE
     1 ZL3         1 TEMP              0 ****  ****    0 ROOT
