@<TRIPOS>MOLECULE
ZL4
  100   105     1     0     0
SMALL
No Charge or Current Charge


@<TRIPOS>ATOM
      1 C25         74.2890    36.4220     4.7760 ca         1 ZL4       0.049000
      2 O2          73.9740    39.9510     5.8300 oh         1 ZL4      -0.484100
      3 O3          76.5760    31.7300    -2.8250 o          1 ZL4      -0.579100
      4 C24         74.2870    35.8380     6.0600 ca         1 ZL4      -0.109000
      5 C26         74.3120    35.6190     3.6200 ca         1 ZL4      -0.146000
      6 C23         74.3040    36.6570     7.2090 ca         1 ZL4      -0.094000
      7 C22         75.3670    38.7540     8.0510 c3         1 ZL4       0.039600
      8 C21         76.6540    38.0020     8.4990 c3         1 ZL4      -0.092400
      9 C20         77.4990    37.3370     7.3790 c3         1 ZL4      -0.088400
     10 C19         77.8520    38.2480     6.1730 c3         1 ZL4      -0.070400
     11 C28         74.1700    37.6060     2.2310 ca         1 ZL4      -0.098000
     12 C27         74.2670    36.2010     2.3350 ca         1 ZL4       0.124000
     13 C18         78.7120    37.5620     5.0810 c3         1 ZL4      -0.077400
     14 C17         78.1420    36.2150     4.5740 c3         1 ZL4      -0.074400
     15 C16         78.8400    35.6640     3.3130 c3         1 ZL4      -0.077400
     16 N2          74.4810    38.0400     7.0870 na         1 ZL4      -0.054700
     17 C15         78.5240    34.1690     3.0790 c3         1 ZL4       0.176800
     18 C11         79.4030    31.2030    -1.9300 cx         1 ZL4      -0.066400
     19 C12         79.1690    31.9470    -0.6350 cx         1 ZL4      -0.075000
     20 C13         79.9450    31.5710     0.6370 c6         1 ZL4      -0.053900
     21 C14         79.2380    32.1290     1.8950 c6         1 ZL4       0.176300
     22 O1          66.6830    31.5970     0.7590 oh         1 ZL4      -0.641000
     23 N1          79.0900    33.6110     1.8300 n3         1 ZL4      -0.721600
     24 C10         78.1230    30.9690    -1.1440 cx         1 ZL4      -0.253700
     25 C8          74.5350    32.2410    -0.8290 c3         1 ZL4       0.078400
     26 C9          76.8070    31.4990    -1.6480 c          1 ZL4       0.634100
     27 C4          69.5320    31.0820    -0.2150 c3         1 ZL4      -0.068400
     28 C3          68.5100    30.0550     0.3470 c3         1 ZL4      -0.140400
     29 C2          67.0080    30.3870     0.1210 c3         1 ZL4       0.414000
     30 C1          66.0420    29.2720     0.6020 c3         1 ZL4      -0.134400
     31 C5          70.9970    30.6670     0.0450 c3         1 ZL4      -0.078400
     32 N           75.8890    31.6890    -0.6460 ns         1 ZL4      -0.529900
     33 C33         78.9600    33.4760    -0.6880 c6         1 ZL4      -0.053900
     34 C32         78.3260    34.0230     0.6150 c6         1 ZL4       0.176300
     35 C31         74.2110    38.6020     5.8290 ca         1 ZL4       0.319800
     36 C30         74.2160    37.8240     4.6560 ca         1 ZL4      -0.133000
     37 C29         74.1340    38.4120     3.3800 ca         1 ZL4      -0.031000
     38 C35         74.3120    35.3480     1.1390 cc         1 ZL4      -0.239000
     39 N3          74.4300    33.9770     1.0520 na         1 ZL4      -0.280500
     40 C36         74.2330    35.8110    -0.1530 cd         1 ZL4       0.322900
     41 N4          74.2990    34.7460    -1.0300 nd         1 ZL4      -0.648000
     42 C34         74.4120    33.6540    -0.2860 cc         1 ZL4       0.450800
     43 O           66.7760    30.6160    -1.2470 oh         1 ZL4      -0.641000
     44 C           66.1210    28.9170     2.1070 c3         1 ZL4      -0.088100
     45 H1          74.2640    34.7560     6.1700 ha         1 ZL4       0.163000
     46 H2          74.3670    34.5400     3.7240 ha         1 ZL4       0.133000
     47 H3          74.2910    36.2300     8.2130 h4         1 ZL4       0.173000
     48 H4          75.6940    39.7030     7.6090 h1         1 ZL4       0.075700
     49 H5          74.7760    39.0030     8.9420 h1         1 ZL4       0.075700
     50 H6          77.2880    38.7090     9.0480 hc         1 ZL4       0.072700
     51 H7          76.3750    37.2260     9.2240 hc         1 ZL4       0.072700
     52 H8          76.9620    36.4530     7.0230 hc         1 ZL4       0.056700
     53 H9          78.4300    36.9640     7.8230 hc         1 ZL4       0.056700
     54 H10         78.3840    39.1360     6.5370 hc         1 ZL4       0.032200
     55 H11         76.9340    38.6080     5.7000 hc         1 ZL4       0.032200
     56 H12         74.1240    38.0920     1.2620 ha         1 ZL4       0.151000
     57 H13         79.7250    37.3970     5.4700 hc         1 ZL4       0.057200
     58 H14         78.8110    38.2530     4.2340 hc         1 ZL4       0.057200
     59 H15         77.0730    36.3270     4.3610 hc         1 ZL4       0.022200
     60 H16         78.2340    35.4710     5.3750 hc         1 ZL4       0.022200
     61 H17         79.9260    35.7770     3.4130 hc         1 ZL4       0.057700
     62 H18         78.5320    36.2620     2.4480 hc         1 ZL4       0.057700
     63 H19         77.4350    34.0250     3.0890 h1         1 ZL4       0.017200
     64 H20         78.9260    33.6180     3.9400 h1         1 ZL4       0.017200
     65 H21         80.1490    30.4110    -1.9340 hc         1 ZL4       0.091200
     66 H22         79.3420    31.7640    -2.8600 hc         1 ZL4       0.091200
     67 H23         80.0440    30.4800     0.7200 hc         1 ZL4       0.066200
     68 H24         80.9650    31.9750     0.5760 hc         1 ZL4       0.066200
     69 H25         78.2510    31.6530     1.9960 h1         1 ZL4       0.024200
     70 H26         79.8270    31.8460     2.7800 h1         1 ZL4       0.024200
     71 H27         67.4740    32.1600     0.6540 ho         1 ZL4       0.452500
     72 H29         78.0480    30.0110    -0.6370 hc         1 ZL4       0.081700
     73 H30         73.6520    30.2690    -0.6900 hc         1 ZL4       0.045200
     74 H31         73.6450    31.1520     0.8320 hc         1 ZL4       0.045200
     75 H32         74.3380    32.3120    -1.9070 h1         1 ZL4       0.115700
     76 H33         71.8320    32.6610    -0.0590 hc         1 ZL4       0.055200
     77 H34         71.8670    31.7920    -1.5930 hc         1 ZL4       0.055200
     78 H35         69.3590    32.0670     0.2360 hc         1 ZL4       0.054700
     79 H36         69.3840    31.1950    -1.2970 hc         1 ZL4       0.054700
     80 H37         68.7180    29.0760    -0.1020 hc         1 ZL4       0.043700
     81 H38         68.6930    29.9450     1.4220 hc         1 ZL4       0.043700
     82 H39         65.0100    29.5700     0.3780 hc         1 ZL4       0.057200
     83 H40         66.2340    28.3610     0.0220 hc         1 ZL4       0.057200
     84 H41         71.1790    29.6850    -0.4090 hc         1 ZL4       0.034200
     85 H42         71.1530    30.5540     1.1250 hc         1 ZL4       0.034200
     86 H43         76.1970    31.4450     0.2880 hn         1 ZL4       0.316500
     87 H44         79.9330    33.9610    -0.8420 hc         1 ZL4       0.066200
     88 H45         78.3390    33.7590    -1.5490 hc         1 ZL4       0.066200
     89 H46         78.2750    35.1180     0.5410 h1         1 ZL4       0.024200
     90 H47         77.2910    33.6600     0.6860 h1         1 ZL4       0.024200
     91 H48         74.0660    39.4930     3.2700 ha         1 ZL4       0.150000
     92 H49         74.5100    33.3140     1.8120 hn         1 ZL4       0.355000
     93 H50         74.1330    36.8270    -0.5120 h4         1 ZL4       0.048100
     94 H52         65.8110    30.5170    -1.3670 ho         1 ZL4       0.452500
     95 H53         65.3590    28.1700     2.3590 hc         1 ZL4       0.035033
     96 H54         67.1000    28.4950     2.3650 hc         1 ZL4       0.035033
     97 H55         65.9470    29.8010     2.7320 hc         1 ZL4       0.035033
     98 H28         73.6490    40.2100     6.7180 ho         1 ZL4       0.518000
     99 C7          73.4870    31.2600    -0.2480 c3         1 ZL4      -0.086400
    100 C6          72.0210    31.6800    -0.5120 c3         1 ZL4      -0.074400
@<TRIPOS>BOND
     1     1     4 ar  
     2     1     5 ar  
     3     1    36 ar  
     4     2    35 1   
     5     2    98 1   
     6     3    26 2   
     7     4     6 ar  
     8     4    45 1   
     9     5    12 ar  
    10     5    46 1   
    11     6    16 1   
    12     6    47 1   
    13     7     8 1   
    14     7    16 1   
    15     7    48 1   
    16     7    49 1   
    17     8     9 1   
    18     8    50 1   
    19     8    51 1   
    20     9    10 1   
    21     9    52 1   
    22     9    53 1   
    23    10    13 1   
    24    10    54 1   
    25    10    55 1   
    26    11    12 ar  
    27    11    37 ar  
    28    11    56 1   
    29    12    38 1   
    30    13    14 1   
    31    13    57 1   
    32    13    58 1   
    33    14    15 1   
    34    14    59 1   
    35    14    60 1   
    36    15    17 1   
    37    15    61 1   
    38    15    62 1   
    39    16    35 2   
    40    17    23 1   
    41    17    63 1   
    42    17    64 1   
    43    18    19 1   
    44    18    24 1   
    45    18    65 1   
    46    18    66 1   
    47    19    20 1   
    48    19    24 1   
    49    19    33 1   
    50    20    21 1   
    51    20    67 1   
    52    20    68 1   
    53    21    23 1   
    54    21    69 1   
    55    21    70 1   
    56    22    29 1   
    57    22    71 1   
    58    23    34 1   
    59    24    26 1   
    60    24    72 1   
    61    25    32 1   
    62    25    42 1   
    63    25    75 1   
    64    25    99 1   
    65    26    32 1   
    66    27    28 1   
    67    27    31 1   
    68    27    78 1   
    69    27    79 1   
    70    28    29 1   
    71    28    80 1   
    72    28    81 1   
    73    29    30 1   
    74    29    43 1   
    75    30    44 1   
    76    30    82 1   
    77    30    83 1   
    78    31    84 1   
    79    31    85 1   
    80    31   100 1   
    81    32    86 1   
    82    33    34 1   
    83    33    87 1   
    84    33    88 1   
    85    34    89 1   
    86    34    90 1   
    87    35    36 ar  
    88    36    37 ar  
    89    37    91 1   
    90    38    39 1   
    91    38    40 2   
    92    39    42 1   
    93    39    92 1   
    94    40    41 1   
    95    40    93 1   
    96    41    42 2   
    97    43    94 1   
    98    44    95 1   
    99    44    96 1   
   100    44    97 1   
   101    73    99 1   
   102    74    99 1   
   103    76   100 1   
   104    77   100 1   
   105    99   100 1   
@<TRIPOS>SUBSTRUCTURE
     1 ZL4         1 TEMP              0 ****  ****    0 ROOT
