@<TRIPOS>MOLECULE
ZL4
  100   105     1     0     0
SMALL
abcg2


@<TRIPOS>ATOM
      1 C25         74.6360    36.3390     4.5380 ca         1 ZL4       0.049000
      2 O2          75.0320    39.8400     5.2880 oh         1 ZL4      -0.484100
      3 O3          76.4080    33.0080    -2.0370 o          1 ZL4      -0.579100
      4 C24         74.8250    35.8150     5.8460 ca         1 ZL4      -0.109000
      5 C26         74.3890    35.5230     3.4260 ca         1 ZL4      -0.146000
      6 C23         75.1240    36.6450     6.8620 ca         1 ZL4      -0.094000
      7 C22         75.7770    38.8030     7.8200 c3         1 ZL4       0.039600
      8 C21         76.9580    38.1650     8.5530 c3         1 ZL4      -0.092400
      9 C20         78.0310    37.5280     7.6730 c3         1 ZL4      -0.088400
     10 C19         78.5660    38.3860     6.5290 c3         1 ZL4      -0.070400
     11 C28         74.1950    37.4870     2.0390 ca         1 ZL4      -0.098000
     12 C27         74.1770    36.0760     2.1750 ca         1 ZL4       0.124000
     13 C18         79.3890    37.5880     5.5160 c3         1 ZL4      -0.077400
     14 C17         78.6120    36.4260     4.9010 c3         1 ZL4      -0.074400
     15 C16         79.2720    35.8000     3.6790 c3         1 ZL4      -0.077400
     16 N2          75.2720    38.0030     6.6790 na         1 ZL4      -0.054700
     17 C15         78.6500    34.4420     3.3700 c3         1 ZL4       0.176800
     18 C11         78.9780    31.5660    -1.5870 cx         1 ZL4      -0.066400
     19 C12         78.9580    32.3370    -0.3220 cx         1 ZL4      -0.075000
     20 C13         79.6970    31.8230     0.8910 c6         1 ZL4      -0.053900
     21 C14         79.0800    32.4040     2.1530 c6         1 ZL4       0.176300
     22 O1          66.2380    31.1530     0.0910 oh         1 ZL4      -0.641000
     23 N1          79.1140    33.8560     2.1260 n3         1 ZL4      -0.721600
     24 C10         77.7440    31.5140    -0.7240 cx         1 ZL4      -0.253700
     25 C8          74.0450    32.1470    -0.8640 c3         1 ZL4       0.078400
     26 C9          76.4770    32.1380    -1.1790 c          1 ZL4       0.634100
     27 C4          69.1470    30.7830    -0.5030 c3         1 ZL4      -0.068400
     28 C3          68.1960    29.7160     0.0240 c3         1 ZL4      -0.140400
     29 C2          66.7210    29.9100    -0.3500 c3         1 ZL4       0.414000
     30 C1          65.8460    28.7650     0.1860 c3         1 ZL4      -0.134400
     31 C5          70.5940    30.4800    -0.1320 c3         1 ZL4      -0.078400
     32 N           75.3740    31.6640    -0.5590 ns         1 ZL4      -0.529900
     33 C33         78.9290    33.8460    -0.3300 c6         1 ZL4      -0.053900
     34 C32         78.3800    34.3770     0.9860 c6         1 ZL4       0.176300
     35 C31         74.9970    38.5500     5.4950 ca         1 ZL4       0.319800
     36 C30         74.6800    37.7380     4.3770 ca         1 ZL4      -0.133000
     37 C29         74.4380    38.3000     3.1060 ca         1 ZL4      -0.031000
     38 C35         73.9250    35.2730     0.9980 cc         1 ZL4      -0.239000
     39 N3          74.2390    33.9430     0.8650 na         1 ZL4      -0.280500
     40 C36         73.3270    35.6030    -0.1960 cd         1 ZL4       0.322900
     41 N4          73.2870    34.5290    -1.0240 nd         1 ZL4      -0.648000
     42 C34         73.8540    33.5460    -0.3620 cc         1 ZL4       0.450800
     43 O           66.5640    30.0050    -1.7440 oh         1 ZL4      -0.641000
     44 C           65.7960    28.6380     1.7030 c3         1 ZL4      -0.088100
     45 H1          74.7380    34.7550     6.0340 ha         1 ZL4       0.163000
     46 H2          74.3490    34.4520     3.5780 ha         1 ZL4       0.133000
     47 H3          75.2740    36.2920     7.8710 h4         1 ZL4       0.173000
     48 H4          76.1080    39.7680     7.4470 h1         1 ZL4       0.075700
     49 H5          74.9480    38.9820     8.5040 h1         1 ZL4       0.075700
     50 H6          77.3850    38.9720     9.1530 hc         1 ZL4       0.072700
     51 H7          76.5990    37.4240     9.2710 hc         1 ZL4       0.072700
     52 H8          77.6410    36.5890     7.2770 hc         1 ZL4       0.056700
     53 H9          78.8620    37.2360     8.3200 hc         1 ZL4       0.056700
     54 H10         79.1660    39.2050     6.9340 hc         1 ZL4       0.032200
     55 H11         77.7480    38.8620     5.9820 hc         1 ZL4       0.032200
     56 H12         74.0370    37.9310     1.0660 ha         1 ZL4       0.151000
     57 H13         80.2990    37.2040     5.9910 hc         1 ZL4       0.057200
     58 H14         79.7220    38.2660     4.7250 hc         1 ZL4       0.057200
     59 H15         77.6070    36.7660     4.6280 hc         1 ZL4       0.022200
     60 H16         78.4660    35.6480     5.6550 hc         1 ZL4       0.022200
     61 H17         80.3430    35.6640     3.8530 hc         1 ZL4       0.057700
     62 H18         79.1800    36.4770     2.8250 hc         1 ZL4       0.057700
     63 H19         77.5480    34.5240     3.3880 h1         1 ZL4       0.017200
     64 H20         78.9100    33.7640     4.1880 h1         1 ZL4       0.017200
     65 H21         79.5750    30.6640    -1.6450 hc         1 ZL4       0.091200
     66 H22         78.9040    32.1170    -2.5170 hc         1 ZL4       0.091200
     67 H23         79.6720    30.7320     0.9340 hc         1 ZL4       0.066200
     68 H24         80.7490    32.1210     0.8300 hc         1 ZL4       0.066200
     69 H25         78.0490    32.0210     2.2630 h1         1 ZL4       0.024200
     70 H26         79.6370    32.0590     3.0270 h1         1 ZL4       0.024200
     71 H27         66.5620    31.3190     0.9820 ho         1 ZL4       0.452500
     72 H29         77.6130    30.6060    -0.1440 hc         1 ZL4       0.081700
     73 H30         73.2380    30.1810    -0.6800 hc         1 ZL4       0.045200
     74 H31         73.1330    31.1180     0.8020 hc         1 ZL4       0.045200
     75 H32         73.9130    32.1850    -1.9490 h1         1 ZL4       0.115700
     76 H33         71.3110    32.5040    -0.1940 hc         1 ZL4       0.055200
     77 H34         71.4750    31.6460    -1.7130 hc         1 ZL4       0.055200
     78 H35         68.8720    31.7630    -0.1030 hc         1 ZL4       0.054700
     79 H36         69.0650    30.8570    -1.5900 hc         1 ZL4       0.054700
     80 H37         68.5150    28.7320    -0.3390 hc         1 ZL4       0.043700
     81 H38         68.2880    29.6660     1.1140 hc         1 ZL4       0.043700
     82 H39         64.8320    28.9160    -0.1970 hc         1 ZL4       0.057200
     83 H40         66.2030    27.8230    -0.2410 hc         1 ZL4       0.057200
     84 H41         70.8750    29.5040    -0.5410 hc         1 ZL4       0.034200
     85 H42         70.6820    30.3890     0.9560 hc         1 ZL4       0.034200
     86 H43         75.4710    30.9510     0.1480 hn         1 ZL4       0.316500
     87 H44         79.9540    34.2060    -0.4630 hc         1 ZL4       0.066200
     88 H45         78.3440    34.2410    -1.1590 hc         1 ZL4       0.066200
     89 H46         78.4400    35.4680     0.9890 h1         1 ZL4       0.024200
     90 H47         77.3060    34.1220     1.0620 h1         1 ZL4       0.024200
     91 H48         74.4600    39.3710     2.9630 ha         1 ZL4       0.150000
     92 H49         74.7510    33.3780     1.5270 hn         1 ZL4       0.355000
     93 H50         72.9130    36.5570    -0.4840 h4         1 ZL4       0.048100
     94 H52         66.8230    29.1660    -2.1390 ho         1 ZL4       0.452500
     95 H53         65.1100    27.8430     1.9940 hc         1 ZL4       0.035033
     96 H54         66.7690    28.3950     2.1310 hc         1 ZL4       0.035033
     97 H55         65.4430    29.5550     2.1760 hc         1 ZL4       0.035033
     98 H28         75.0820    40.3950     6.0780 ho         1 ZL4       0.518000
     99 C7          73.0120    31.1760    -0.2850 c3         1 ZL4      -0.086400
    100 C6          71.5730    31.5350    -0.6280 c3         1 ZL4      -0.074400
@<TRIPOS>BOND
     1     1     4 ar  
     2     1     5 ar  
     3     1    36 ar  
     4     2    35 1   
     5     2    98 1   
     6     3    26 2   
     7     4     6 ar  
     8     4    45 1   
     9     5    12 ar  
    10     5    46 1   
    11     6    16 1   
    12     6    47 1   
    13     7     8 1   
    14     7    16 1   
    15     7    48 1   
    16     7    49 1   
    17     8     9 1   
    18     8    50 1   
    19     8    51 1   
    20     9    10 1   
    21     9    52 1   
    22     9    53 1   
    23    10    13 1   
    24    10    54 1   
    25    10    55 1   
    26    11    12 ar  
    27    11    37 ar  
    28    11    56 1   
    29    12    38 1   
    30    13    14 1   
    31    13    57 1   
    32    13    58 1   
    33    14    15 1   
    34    14    59 1   
    35    14    60 1   
    36    15    17 1   
    37    15    61 1   
    38    15    62 1   
    39    16    35 2   
    40    17    23 1   
    41    17    63 1   
    42    17    64 1   
    43    18    19 1   
    44    18    24 1   
    45    18    65 1   
    46    18    66 1   
    47    19    20 1   
    48    19    24 1   
    49    19    33 1   
    50    20    21 1   
    51    20    67 1   
    52    20    68 1   
    53    21    23 1   
    54    21    69 1   
    55    21    70 1   
    56    22    29 1   
    57    22    71 1   
    58    23    34 1   
    59    24    26 1   
    60    24    72 1   
    61    25    32 1   
    62    25    42 1   
    63    25    75 1   
    64    25    99 1   
    65    26    32 1   
    66    27    28 1   
    67    27    31 1   
    68    27    78 1   
    69    27    79 1   
    70    28    29 1   
    71    28    80 1   
    72    28    81 1   
    73    29    30 1   
    74    29    43 1   
    75    30    44 1   
    76    30    82 1   
    77    30    83 1   
    78    31    84 1   
    79    31    85 1   
    80    31   100 1   
    81    32    86 1   
    82    33    34 1   
    83    33    87 1   
    84    33    88 1   
    85    34    89 1   
    86    34    90 1   
    87    35    36 ar  
    88    36    37 ar  
    89    37    91 1   
    90    38    39 1   
    91    38    40 2   
    92    39    42 1   
    93    39    92 1   
    94    40    41 1   
    95    40    93 1   
    96    41    42 2   
    97    43    94 1   
    98    44    95 1   
    99    44    96 1   
   100    44    97 1   
   101    73    99 1   
   102    74    99 1   
   103    76   100 1   
   104    77   100 1   
   105    99   100 1   
@<TRIPOS>SUBSTRUCTURE
     1 ZL4         1 TEMP              0 ****  ****    0 ROOT
