@<TRIPOS>MOLECULE
ZL5
   42    45     1     0     0
SMALL
No Charge or Current Charge


@<TRIPOS>ATOM
      1 C01        166.7220   162.1210   111.6120 c3         1 ZL5      -0.046800
      2 C02        167.9110   161.5990   112.4090 ca         1 ZL5      -0.078300
      3 C03        169.2180   161.9020   111.9550 ca         1 ZL5      -0.079000
      4 C04        170.3590   161.4270   112.6390 ca         1 ZL5      -0.138000
      5 C05        170.2180   160.6470   113.8010 ca         1 ZL5      -0.038000
      6 C06        168.9180   160.3850   114.2540 ca         1 ZL5      -0.203900
      7 C07        168.4390   159.6030   115.3710 cc         1 ZL5       0.400500
      8 C08        169.2910   158.9150   116.3370 ca         1 ZL5      -0.134900
      9 C09        169.0320   157.5670   116.6610 ca         1 ZL5      -0.011000
     10 C10        169.8220   156.8840   117.6130 ca         1 ZL5      -0.222300
     11 C11        169.5300   155.4160   117.9410 c3         1 ZL5       0.361300
     12 C15        170.8560   157.5800   118.2740 ca         1 ZL5      -0.032000
     13 C16        171.0930   158.9330   117.9820 ca         1 ZL5      -0.166000
     14 C17        170.3110   159.5970   117.0270 ca         1 ZL5       0.216000
     15 C22        164.6980   161.7890   114.2990 cc         1 ZL5       0.459300
     16 C28        167.8040   160.8170   113.5870 ca         1 ZL5      -0.017200
     17 F12        169.1200   154.7220   116.8550 f          1 ZL5      -0.112667
     18 F13        168.5560   155.3060   118.8720 f          1 ZL5      -0.112667
     19 F14        170.6140   154.7670   118.4260 f          1 ZL5      -0.112667
     20 F18        170.5270   160.9150   116.8130 f          1 ZL5      -0.162000
     21 N19        167.1060   159.5060   115.3830 nd         1 ZL5      -0.512100
     22 N20        166.7230   160.2880   114.2960 na         1 ZL5       0.080600
     23 N23        165.1460   162.5250   115.3580 nc         1 ZL5      -0.371000
     24 N24        164.4220   163.6070   115.3740 nd         1 ZL5      -0.175800
     25 N25        163.5550   163.4740   114.3230 na         1 ZL5       0.249600
     26 N27        163.7060   162.3180   113.6200 nd         1 ZL5      -0.507800
     27 H011       166.0870   161.3060   111.2490 hc         1 ZL5       0.046033
     28 H013       166.1140   162.8090   112.2080 hc         1 ZL5       0.046033
     29 H012       167.0470   162.6800   110.7260 hc         1 ZL5       0.046033
     30 H031       169.3560   162.5000   111.0570 ha         1 ZL5       0.112000
     31 H041       171.3520   161.6590   112.2620 ha         1 ZL5       0.116000
     32 H051       171.0930   160.2620   114.3200 ha         1 ZL5       0.123000
     33 H091       168.2180   157.0470   116.1580 ha         1 ZL5       0.146000
     34 H151       171.4690   157.0840   119.0250 ha         1 ZL5       0.132000
     35 H161       171.8760   159.4730   118.5080 ha         1 ZL5       0.140000
     36 H212       165.1500   160.2360   112.8950 h1         1 ZL5       0.087700
     37 H211       164.7270   159.6870   114.5070 h1         1 ZL5       0.087700
     38 H261       161.7730   164.0500   113.3560 h1         1 ZL5       0.073700
     39 H263       162.1030   164.8840   114.9030 h1         1 ZL5       0.073700
     40 H262       163.0400   165.3100   113.4400 h1         1 ZL5       0.073700
     41 C21        165.2940   160.4470   113.9580 c3         1 ZL5       0.086300
     42 C26        162.5540   164.4930   113.9840 c3         1 ZL5       0.074900
@<TRIPOS>BOND
     1     1     2 1   
     2     1    27 1   
     3     1    28 1   
     4     1    29 1   
     5     2     3 ar  
     6     2    16 ar  
     7     3     4 ar  
     8     3    30 1   
     9     4     5 ar  
    10     4    31 1   
    11     5     6 ar  
    12     5    32 1   
    13     6     7 1   
    14     6    16 ar  
    15     7     8 1   
    16     7    21 2   
    17     8     9 ar  
    18     8    14 ar  
    19     9    10 ar  
    20     9    33 1   
    21    10    11 1   
    22    10    12 ar  
    23    11    17 1   
    24    11    18 1   
    25    11    19 1   
    26    12    13 ar  
    27    12    34 1   
    28    13    14 ar  
    29    13    35 1   
    30    14    20 1   
    31    15    23 1   
    32    15    26 2   
    33    15    41 1   
    34    16    22 1   
    35    21    22 1   
    36    22    41 1   
    37    23    24 2   
    38    24    25 1   
    39    25    26 1   
    40    25    42 1   
    41    36    41 1   
    42    37    41 1   
    43    38    42 1   
    44    39    42 1   
    45    40    42 1   
@<TRIPOS>SUBSTRUCTURE
     1 ZL5         1 TEMP              0 ****  ****    0 ROOT
