@<TRIPOS>MOLECULE
ZL5
   42    45     1     0     0
SMALL
abcg2


@<TRIPOS>ATOM
      1 C01        167.3520   162.0640   110.9250 c3         1 ZL5      -0.046800
      2 C02        168.4110   161.6150   111.8880 ca         1 ZL5      -0.078300
      3 C03        169.7390   161.9100   111.6550 ca         1 ZL5      -0.079000
      4 C04        170.7820   161.5110   112.5110 ca         1 ZL5      -0.138000
      5 C05        170.5230   160.8120   113.6630 ca         1 ZL5      -0.038000
      6 C06        169.1860   160.5080   113.9550 ca         1 ZL5      -0.203900
      7 C07        168.5190   159.8120   115.0040 cc         1 ZL5       0.400500
      8 C08        169.0600   159.1510   116.1960 ca         1 ZL5      -0.134900
      9 C09        168.5740   157.9050   116.5960 ca         1 ZL5      -0.011000
     10 C10        169.0560   157.2840   117.7360 ca         1 ZL5      -0.222300
     11 C11        168.5280   155.9570   118.1820 c3         1 ZL5       0.361300
     12 C15        170.0470   157.8960   118.5000 ca         1 ZL5      -0.032000
     13 C16        170.5350   159.1340   118.1290 ca         1 ZL5      -0.166000
     14 C17        170.0250   159.7420   116.9980 ca         1 ZL5       0.216000
     15 C22        164.9920   161.6960   113.9180 cc         1 ZL5       0.459300
     16 C28        168.1570   160.8840   113.0690 ca         1 ZL5      -0.017200
     17 F12        167.6190   155.4570   117.3410 f          1 ZL5      -0.112667
     18 F13        167.9470   156.0380   119.3880 f          1 ZL5      -0.112667
     19 F14        169.5050   155.0470   118.2970 f          1 ZL5      -0.112667
     20 F18        170.4690   160.9620   116.6820 f          1 ZL5      -0.162000
     21 N19        167.2320   159.7580   114.7630 nd         1 ZL5      -0.512100
     22 N20        167.0080   160.3800   113.6070 na         1 ZL5       0.080600
     23 N23        165.4660   162.9490   113.9110 nc         1 ZL5      -0.371000
     24 N24        164.6540   163.6470   114.6370 nd         1 ZL5      -0.175800
     25 N25        163.7330   162.8300   115.0550 na         1 ZL5       0.249600
     26 N27        163.8960   161.6000   114.6400 nd         1 ZL5      -0.507800
     27 H011       166.8450   161.2210   110.4520 hc         1 ZL5       0.046033
     28 H013       166.5930   162.6810   111.4070 hc         1 ZL5       0.046033
     29 H012       167.7980   162.6590   110.1300 hc         1 ZL5       0.046033
     30 H031       169.9900   162.4730   110.7640 ha         1 ZL5       0.112000
     31 H041       171.8010   161.7650   112.2500 ha         1 ZL5       0.116000
     32 H051       171.3290   160.4980   114.3110 ha         1 ZL5       0.123000
     33 H091       167.8150   157.4360   115.9840 ha         1 ZL5       0.146000
     34 H151       170.4410   157.4200   119.3880 ha         1 ZL5       0.132000
     35 H161       171.2920   159.6330   118.7190 ha         1 ZL5       0.140000
     36 H212       165.5790   160.6910   112.1300 h1         1 ZL5       0.087700
     37 H211       165.0930   159.6350   113.4370 h1         1 ZL5       0.087700
     38 H261       162.0520   162.3820   116.1600 h1         1 ZL5       0.073700
     39 H263       163.0270   163.7210   116.7990 h1         1 ZL5       0.073700
     40 H262       162.0120   163.9660   115.3590 h1         1 ZL5       0.073700
     41 C21        165.6310   160.5520   113.2070 c3         1 ZL5       0.086300
     42 C26        162.6360   163.2570   115.8980 c3         1 ZL5       0.074900
@<TRIPOS>BOND
     1     1     2 1   
     2     1    27 1   
     3     1    28 1   
     4     1    29 1   
     5     2     3 ar  
     6     2    16 ar  
     7     3     4 ar  
     8     3    30 1   
     9     4     5 ar  
    10     4    31 1   
    11     5     6 ar  
    12     5    32 1   
    13     6     7 1   
    14     6    16 ar  
    15     7     8 1   
    16     7    21 2   
    17     8     9 ar  
    18     8    14 ar  
    19     9    10 ar  
    20     9    33 1   
    21    10    11 1   
    22    10    12 ar  
    23    11    17 1   
    24    11    18 1   
    25    11    19 1   
    26    12    13 ar  
    27    12    34 1   
    28    13    14 ar  
    29    13    35 1   
    30    14    20 1   
    31    15    23 1   
    32    15    26 2   
    33    15    41 1   
    34    16    22 1   
    35    21    22 1   
    36    22    41 1   
    37    23    24 2   
    38    24    25 1   
    39    25    26 1   
    40    25    42 1   
    41    36    41 1   
    42    37    41 1   
    43    38    42 1   
    44    39    42 1   
    45    40    42 1   
@<TRIPOS>SUBSTRUCTURE
     1 ZL5         1 TEMP              0 ****  ****    0 ROOT
