@<TRIPOS>MOLECULE
ZL7
   67    69     1     0     0
SMALL
No Charge or Current Charge


@<TRIPOS>ATOM
      1 C10          1.8120   -30.8920    22.9760 cx         1 ZL7      -0.115400
      2 C15         10.8370   -31.2930    24.2210 ca         1 ZL7       0.182000
      3 C20          7.1410   -31.7750    20.7830 c          1 ZL7       0.594100
      4 C21          7.2180   -33.6760    22.4090 cx         1 ZL7       0.041700
      5 C22          8.1170   -34.4480    23.3410 cx         1 ZL7      -0.129400
      6 C11          8.4040   -28.2930    26.2300 c3         1 ZL7       0.160800
      7 C12          9.3060   -29.3290    25.5420 ca         1 ZL7      -0.163300
      8 C14         10.8830   -29.9620    23.7850 ca         1 ZL7      -0.151000
      9 C16         10.0350   -31.6510    25.3140 ca         1 ZL7      -0.151000
     10 C18          9.2030   -27.1630    26.9660 c3         1 ZL7       0.312000
     11 C19          7.9600   -30.5390    20.2970 c3         1 ZL7       0.073300
     12 C23          7.0330   -33.5610    23.9010 cx         1 ZL7      -0.129400
     13 C2           7.8140   -27.9150    20.1650 c3         1 ZL7      -0.095400
     14 C3           7.2780   -29.2320    20.7990 c3         1 ZL7       0.095700
     15 N1           7.2890   -29.1840    22.2650 ns         1 ZL7      -0.502900
     16 C4           6.3590   -28.5320    23.0480 c          1 ZL7       0.583100
     17 O1           5.4630   -27.8530    22.5630 o          1 ZL7      -0.581100
     18 C5           6.5420   -28.7740    24.5890 c3         1 ZL7       0.138500
     19 C6           5.2180   -28.8380    25.3880 c3         1 ZL7      -0.286400
     20 S1           4.5100   -30.4950    25.4980 s6         1 ZL7       1.046000
     21 O2           3.1750   -30.3690    26.0970 o          1 ZL7      -0.523000
     22 O3           5.5040   -31.3480    26.1600 o          1 ZL7      -0.523000
     23 C7           4.3170   -31.1110    23.7970 c3         1 ZL7      -0.236400
     24 C8           3.2130   -30.3340    23.0730 cx         1 ZL7      -0.118700
     25 C9           2.6920   -30.8440    21.7500 cx         1 ZL7      -0.115400
     26 N2           7.4310   -27.7590    25.2320 n7         1 ZL7      -0.868400
     27 C13         10.1210   -28.9800    24.4420 ca         1 ZL7      -0.063500
     28 C17          9.2700   -30.6730    25.9720 ca         1 ZL7      -0.063500
     29 F2           9.8490   -26.3510    26.0960 f          1 ZL7      -0.109333
     30 F3          10.1270   -27.6920    27.8020 f          1 ZL7      -0.109333
     31 F4           8.3740   -26.3930    27.7080 f          1 ZL7      -0.109333
     32 O4           9.3470   -30.6020    20.7420 oh         1 ZL7      -0.676000
     33 N3           7.7830   -32.5450    21.7280 ns         1 ZL7      -0.469900
     34 H1           0.9820   -30.1910    23.0340 hc         1 ZL7       0.076200
     35 H2           1.6140   -31.8650    23.4200 hc         1 ZL7       0.076200
     36 H3           6.4730   -34.2320    21.8360 h1         1 ZL7       0.091700
     37 H4           7.9740   -35.5240    23.4030 hc         1 ZL7       0.077700
     38 H5           9.1490   -34.1210    23.4480 hc         1 ZL7       0.077700
     39 H6           7.8440   -28.8130    27.0210 h1         1 ZL7       0.099700
     40 H7          11.5030   -29.6940    22.9340 ha         1 ZL7       0.139000
     41 H8          10.0020   -32.6860    25.6450 ha         1 ZL7       0.139000
     42 H9           7.9160   -30.5600    19.2000 h1         1 ZL7       0.071700
     43 H10          7.3350   -32.6350    24.3840 hc         1 ZL7       0.077700
     44 H11          6.1610   -34.0390    24.3400 hc         1 ZL7       0.077700
     45 H12          9.3990   -26.4200    20.2380 hc         1 ZL7       0.032700
     46 H13          9.1710   -27.2760    21.7710 hc         1 ZL7       0.032700
     47 H14          9.9980   -28.0720    20.4100 hc         1 ZL7       0.032700
     48 H15          7.0730   -27.1270    20.3450 hc         1 ZL7       0.055700
     49 H16          7.8640   -28.0350    19.0760 hc         1 ZL7       0.055700
     50 H17          6.2250   -29.3070    20.4870 h1         1 ZL7       0.102700
     51 H18          8.0330   -29.6760    22.7480 hn         1 ZL7       0.325500
     52 H19          7.0120   -29.7640    24.6550 h1         1 ZL7       0.064700
     53 H20          5.3890   -28.5470    26.4280 h1         1 ZL7       0.124200
     54 H21          4.4570   -28.1790    24.9600 h1         1 ZL7       0.124200
     55 H22          4.0610   -32.1730    23.8810 h1         1 ZL7       0.103700
     56 H23          5.2830   -31.0150    23.2910 h1         1 ZL7       0.103700
     57 H24          3.3030   -29.2530    23.1590 hc         1 ZL7       0.100700
     58 H25          2.4550   -30.1100    20.9830 hc         1 ZL7       0.076200
     59 H26          3.0880   -31.7840    21.3730 hc         1 ZL7       0.076200
     60 H27          7.9770   -27.2880    24.4990 hn         1 ZL7       0.444000
     61 H29         10.1580   -27.9550    24.0820 ha         1 ZL7       0.128000
     62 H30          8.6380   -30.9670    26.8080 ha         1 ZL7       0.128000
     63 H31          9.8420   -29.9020    20.2640 ho         1 ZL7       0.462000
     64 H32          8.7260   -32.2380    21.9440 hn         1 ZL7       0.338500
     65 F1          11.5620   -32.2370    23.5830 f          1 ZL7      -0.173000
     66 O5           6.0200   -32.0440    20.3680 o          1 ZL7      -0.594100
     67 C1           9.1790   -27.3980    20.6820 c3         1 ZL7      -0.083100
@<TRIPOS>BOND
     1     1    24 1   
     2     1    25 1   
     3     1    34 1   
     4     1    35 1   
     5     2     8 ar  
     6     2     9 ar  
     7     2    65 1   
     8     3    11 1   
     9     3    33 1   
    10     3    66 2   
    11     4     5 1   
    12     4    12 1   
    13     4    33 1   
    14     4    36 1   
    15     5    12 1   
    16     5    37 1   
    17     5    38 1   
    18     6     7 1   
    19     6    10 1   
    20     6    26 1   
    21     6    39 1   
    22     7    27 ar  
    23     7    28 ar  
    24     8    27 ar  
    25     8    40 1   
    26     9    28 ar  
    27     9    41 1   
    28    10    29 1   
    29    10    30 1   
    30    10    31 1   
    31    11    14 1   
    32    11    32 1   
    33    11    42 1   
    34    12    43 1   
    35    12    44 1   
    36    13    14 1   
    37    13    48 1   
    38    13    49 1   
    39    13    67 1   
    40    14    15 1   
    41    14    50 1   
    42    15    16 1   
    43    15    51 1   
    44    16    17 2   
    45    16    18 1   
    46    18    19 1   
    47    18    26 1   
    48    18    52 1   
    49    19    20 1   
    50    19    53 1   
    51    19    54 1   
    52    20    21 2   
    53    20    22 2   
    54    20    23 1   
    55    23    24 1   
    56    23    55 1   
    57    23    56 1   
    58    24    25 1   
    59    24    57 1   
    60    25    58 1   
    61    25    59 1   
    62    26    60 1   
    63    27    61 1   
    64    28    62 1   
    65    32    63 1   
    66    33    64 1   
    67    45    67 1   
    68    46    67 1   
    69    47    67 1   
@<TRIPOS>SUBSTRUCTURE
     1 ZL7         1 TEMP              0 ****  ****    0 ROOT
