@<TRIPOS>MOLECULE
ZL7
   67    69     1     0     0
SMALL
abcg2


@<TRIPOS>ATOM
      1 C10          1.2340   -30.4100    23.6740 cx         1 ZL7      -0.115400
      2 C15         11.2580   -31.3380    24.6070 ca         1 ZL7       0.182000
      3 C20          7.5830   -31.6950    20.7520 c          1 ZL7       0.594100
      4 C21          7.7710   -33.6960    22.1070 cx         1 ZL7       0.041700
      5 C22          8.2750   -34.0750    23.4600 cx         1 ZL7      -0.129400
      6 C11          8.3370   -28.5040    25.9420 c3         1 ZL7       0.160800
      7 C12          9.4060   -29.4800    25.4890 ca         1 ZL7      -0.163300
      8 C14         11.1980   -30.1040    23.9880 ca         1 ZL7      -0.151000
      9 C16         10.4250   -31.6710    25.6560 ca         1 ZL7      -0.151000
     10 C18          8.9220   -27.3190    26.6940 c3         1 ZL7       0.312000
     11 C19          8.3050   -30.4390    20.2550 c3         1 ZL7       0.073300
     12 C23          6.8810   -33.5500    23.3010 cx         1 ZL7      -0.129400
     13 C2           8.0200   -27.8650    20.2000 c3         1 ZL7      -0.095400
     14 C3           7.5190   -29.2130    20.7320 c3         1 ZL7       0.095700
     15 N1           7.4490   -29.2520    22.1790 ns         1 ZL7      -0.502900
     16 C4           6.3730   -28.8760    22.8830 c          1 ZL7       0.583100
     17 O1           5.3490   -28.4450    22.3810 o          1 ZL7      -0.581100
     18 C5           6.5460   -29.0360    24.3980 c3         1 ZL7       0.138500
     19 C6           5.2200   -28.9140    25.1420 c3         1 ZL7      -0.286400
     20 S1           4.3460   -30.4610    25.4140 s6         1 ZL7       1.046000
     21 O2           3.1940   -30.1510    26.2610 o          1 ZL7      -0.523000
     22 O3           5.3190   -31.4430    25.9050 o          1 ZL7      -0.523000
     23 C7           3.7470   -31.0330    23.8160 c3         1 ZL7      -0.236400
     24 C8           2.6510   -30.1850    23.2480 cx         1 ZL7      -0.118700
     25 C9           1.6740   -30.8320    22.3080 cx         1 ZL7      -0.115400
     26 N2           7.4680   -28.0170    24.8930 n7         1 ZL7      -0.868400
     27 C13         10.2700   -29.1780    24.4370 ca         1 ZL7      -0.063500
     28 C17          9.4980   -30.7320    26.0880 ca         1 ZL7      -0.063500
     29 F2           9.6770   -26.5310    25.9140 f          1 ZL7      -0.109333
     30 F3           9.7000   -27.7270    27.7020 f          1 ZL7      -0.109333
     31 F4           7.9630   -26.5500    27.2160 f          1 ZL7      -0.109333
     32 O4           9.6320   -30.4420    20.7200 oh         1 ZL7      -0.676000
     33 N3           8.3160   -32.5250    21.5040 ns         1 ZL7      -0.469900
     34 H1           0.5930   -29.5440    23.7630 hc         1 ZL7       0.076200
     35 H2           1.0430   -31.1830    24.4070 hc         1 ZL7       0.076200
     36 H3           7.5450   -34.5050    21.4190 h1         1 ZL7       0.091700
     37 H4           8.4170   -35.1270    23.6680 hc         1 ZL7       0.077700
     38 H5           9.0060   -33.4230    23.9230 hc         1 ZL7       0.077700
     39 H6           7.7070   -29.0210    26.6750 h1         1 ZL7       0.099700
     40 H7          11.8610   -29.8680    23.1670 ha         1 ZL7       0.139000
     41 H8          10.4860   -32.6450    26.1220 ha         1 ZL7       0.139000
     42 H9           8.2640   -30.4560    19.1590 h1         1 ZL7       0.071700
     43 H10          6.6830   -32.5470    23.6560 hc         1 ZL7       0.077700
     44 H11          6.0510   -34.2360    23.4020 hc         1 ZL7       0.077700
     45 H12          9.4410   -26.2740    20.4790 hc         1 ZL7       0.032700
     46 H13          9.2060   -27.2530    21.9150 hc         1 ZL7       0.032700
     47 H14         10.1810   -27.8590    20.5820 hc         1 ZL7       0.032700
     48 H15          7.2090   -27.1480    20.3520 hc         1 ZL7       0.055700
     49 H16          8.1410   -27.9520    19.1160 hc         1 ZL7       0.055700
     50 H17          6.5030   -29.3450    20.3550 h1         1 ZL7       0.102700
     51 H18          8.2640   -29.5790    22.6790 hn         1 ZL7       0.325500
     52 H19          6.9600   -30.0400    24.5650 h1         1 ZL7       0.064700
     53 H20          5.3960   -28.5610    26.1620 h1         1 ZL7       0.124200
     54 H21          4.5380   -28.2100    24.6640 h1         1 ZL7       0.124200
     55 H22          3.4020   -32.0520    24.0200 h1         1 ZL7       0.103700
     56 H23          4.6090   -31.1090    23.1510 h1         1 ZL7       0.103700
     57 H24          2.9340   -29.1680    23.0080 hc         1 ZL7       0.100700
     58 H25          1.3420   -30.2560    21.4540 hc         1 ZL7       0.076200
     59 H26          1.7860   -31.8920    22.1140 hc         1 ZL7       0.076200
     60 H27          7.9870   -27.5750    24.1460 hn         1 ZL7       0.444000
     61 H29         10.2330   -28.2160    23.9410 ha         1 ZL7       0.128000
     62 H30          8.8310   -30.9890    26.9020 ha         1 ZL7       0.128000
     63 H31         10.2130   -30.0790    20.0450 ho         1 ZL7       0.462000
     64 H32          9.2930   -32.3150    21.6320 hn         1 ZL7       0.338500
     65 F1          12.1480   -32.2390    24.1670 f          1 ZL7      -0.173000
     66 O5           6.4070   -31.8840    20.4770 o          1 ZL7      -0.594100
     67 C1           9.2840   -27.2950    20.8280 c3         1 ZL7      -0.083100
@<TRIPOS>BOND
     1     1    24 1   
     2     1    25 1   
     3     1    34 1   
     4     1    35 1   
     5     2     8 ar  
     6     2     9 ar  
     7     2    65 1   
     8     3    11 1   
     9     3    33 1   
    10     3    66 2   
    11     4     5 1   
    12     4    12 1   
    13     4    33 1   
    14     4    36 1   
    15     5    12 1   
    16     5    37 1   
    17     5    38 1   
    18     6     7 1   
    19     6    10 1   
    20     6    26 1   
    21     6    39 1   
    22     7    27 ar  
    23     7    28 ar  
    24     8    27 ar  
    25     8    40 1   
    26     9    28 ar  
    27     9    41 1   
    28    10    29 1   
    29    10    30 1   
    30    10    31 1   
    31    11    14 1   
    32    11    32 1   
    33    11    42 1   
    34    12    43 1   
    35    12    44 1   
    36    13    14 1   
    37    13    48 1   
    38    13    49 1   
    39    13    67 1   
    40    14    15 1   
    41    14    50 1   
    42    15    16 1   
    43    15    51 1   
    44    16    17 2   
    45    16    18 1   
    46    18    19 1   
    47    18    26 1   
    48    18    52 1   
    49    19    20 1   
    50    19    53 1   
    51    19    54 1   
    52    20    21 2   
    53    20    22 2   
    54    20    23 1   
    55    23    24 1   
    56    23    55 1   
    57    23    56 1   
    58    24    25 1   
    59    24    57 1   
    60    25    58 1   
    61    25    59 1   
    62    26    60 1   
    63    27    61 1   
    64    28    62 1   
    65    32    63 1   
    66    33    64 1   
    67    45    67 1   
    68    46    67 1   
    69    47    67 1   
@<TRIPOS>SUBSTRUCTURE
     1 ZL7         1 TEMP              0 ****  ****    0 ROOT
