@<TRIPOS>MOLECULE
ZL8
   59    62     1     0     0
SMALL
No Charge or Current Charge


@<TRIPOS>ATOM
      1 N1         -22.8700    13.4510    29.2440 n          1 ZL8      -0.404800
      2 N3         -26.5370    12.3750    33.0350 ns         1 ZL8      -0.531900
      3 C4         -21.9140    14.4080    25.7220 ca         1 ZL8      -0.072000
      4 C5         -21.9530    14.4770    27.1330 ca         1 ZL8      -0.125600
      5 C6         -21.5480    15.6780    27.7640 ca         1 ZL8      -0.083000
      6 C7         -22.3670    13.2580    27.9330 c          1 ZL8       0.608700
      7 C8         -23.9790    14.4360    29.3970 c3         1 ZL8       0.105000
      8 C10        -24.9470    14.2530    31.7710 c3         1 ZL8       0.110000
      9 C13        -25.2870    11.9270    32.6930 c          1 ZL8       0.657100
     10 C15        -28.2580    10.6890    32.2980 c3         1 ZL8      -0.183400
     11 C17        -29.7180    13.1780    31.2880 c6         1 ZL8       0.110000
     12 C20        -27.1150    16.6760    29.0420 cc         1 ZL8      -0.227000
     13 C21        -27.3160    15.4020    28.5720 cd         1 ZL8      -0.122000
     14 C22        -28.0480    14.5760    29.4680 cd         1 ZL8      -0.124300
     15 C1         -21.1520    16.7870    27.0000 ca         1 ZL8       0.116000
     16 C11        -23.0810    12.5150    31.6470 c3         1 ZL8       0.102000
     17 C12        -22.9170    12.2530    30.1340 c3         1 ZL8       0.067000
     18 C14        -27.6540    11.5290    33.4510 c3         1 ZL8       0.136000
     19 C16        -28.0010    11.2900    30.9040 c          1 ZL8       0.605100
     20 C18        -29.1710    14.5560    31.7460 c6         1 ZL8      -0.021100
     21 C19        -28.4150    15.2250    30.6210 cc         1 ZL8      -0.210300
     22 C2         -21.1390    16.7130    25.5990 ca         1 ZL8      -0.093000
     23 C23        -28.3890    13.1230    29.1920 c6         1 ZL8       0.153300
     24 C3         -21.5160    15.5210    24.9600 ca         1 ZL8      -0.107000
     25 C9         -24.1030    15.0860    30.7890 c3         1 ZL8      -0.108400
     26 N2         -24.4640    12.8760    32.0500 n          1 ZL8      -0.436800
     27 N4         -28.7140    12.4350    30.4740 n          1 ZL8      -0.418800
     28 O1         -22.1750    12.1310    27.4900 o          1 ZL8      -0.596100
     29 O2         -24.9300    10.7810    32.9180 o          1 ZL8      -0.635100
     30 O3         -27.1370    10.7980    30.1900 o          1 ZL8      -0.597100
     31 S1         -27.8430    16.8890    30.6310 ss         1 ZL8       0.183000
     32 Cl1        -20.6620    18.2730    27.8040 cl         1 ZL8      -0.212000
     33 H15        -26.7280    13.3470    32.8350 hn         1 ZL8       0.307500
     34 H3         -22.2020    13.4900    25.2120 ha         1 ZL8       0.132000
     35 H4         -21.5260    15.7530    28.8490 ha         1 ZL8       0.133000
     36 H6         -23.8740    15.2410    28.6610 h1         1 ZL8       0.060200
     37 H5         -24.9240    13.9310    29.1550 h1         1 ZL8       0.060200
     38 H9         -25.0140    14.7950    32.7240 h1         1 ZL8       0.040200
     39 H10        -25.9580    14.1880    31.3520 h1         1 ZL8       0.040200
     40 H19        -27.8200     9.6860    32.3310 hc         1 ZL8       0.077700
     41 H18        -29.3340    10.6270    32.4860 hc         1 ZL8       0.077700
     42 H21        -30.0590    12.6060    32.1600 h1         1 ZL8       0.054700
     43 H24        -26.5950    17.5040    28.5760 h4         1 ZL8       0.156000
     44 H25        -26.9460    15.0590    27.6100 ha         1 ZL8       0.140000
     45 H11        -22.3840    13.3010    31.9610 h1         1 ZL8       0.065700
     46 H12        -22.7700    11.6080    32.1810 h1         1 ZL8       0.065700
     47 H14        -21.9760    11.7000    30.0070 h1         1 ZL8       0.080700
     48 H13        -23.7270    11.5900    29.8000 h1         1 ZL8       0.080700
     49 H17        -27.3300    10.8670    34.2650 h1         1 ZL8       0.052200
     50 H16        -28.4320    12.1890    33.8570 h1         1 ZL8       0.052200
     51 H22        -30.0020    15.1840    32.0930 hc         1 ZL8       0.055200
     52 H23        -28.5100    14.4200    32.6110 hc         1 ZL8       0.055200
     53 H1         -20.8300    17.5750    25.0120 ha         1 ZL8       0.131000
     54 H26        -29.2570    13.0630    28.5200 h1         1 ZL8       0.074200
     55 H27        -27.5470    12.6370    28.6800 h1         1 ZL8       0.074200
     56 H2         -21.4980    15.4570    23.8740 ha         1 ZL8       0.123000
     57 H8         -23.1110    15.3070    31.2010 hc         1 ZL8       0.056200
     58 H7         -24.6030    16.0540    30.6690 hc         1 ZL8       0.056200
     59 H20        -30.6060    13.3470    30.6620 h1         1 ZL8       0.054700
@<TRIPOS>BOND
     1     1     6 1   
     2     1     7 1   
     3     1    17 1   
     4     2     9 1   
     5     2    18 1   
     6     2    33 1   
     7     3     4 ar  
     8     3    24 ar  
     9     3    34 1   
    10     4     5 ar  
    11     4     6 1   
    12     5    15 ar  
    13     5    35 1   
    14     6    28 2   
    15     7    25 1   
    16     7    36 1   
    17     7    37 1   
    18     8    25 1   
    19     8    26 1   
    20     8    38 1   
    21     8    39 1   
    22     9    26 1   
    23     9    29 2   
    24    10    18 1   
    25    10    19 1   
    26    10    40 1   
    27    10    41 1   
    28    11    20 1   
    29    11    27 1   
    30    11    42 1   
    31    11    59 1   
    32    12    13 2   
    33    12    31 1   
    34    12    43 1   
    35    13    14 1   
    36    13    44 1   
    37    14    21 2   
    38    14    23 1   
    39    15    22 ar  
    40    15    32 1   
    41    16    17 1   
    42    16    26 1   
    43    16    45 1   
    44    16    46 1   
    45    17    47 1   
    46    17    48 1   
    47    18    49 1   
    48    18    50 1   
    49    19    27 1   
    50    19    30 2   
    51    20    21 1   
    52    20    51 1   
    53    20    52 1   
    54    21    31 1   
    55    22    24 ar  
    56    22    53 1   
    57    23    27 1   
    58    23    54 1   
    59    23    55 1   
    60    24    56 1   
    61    25    57 1   
    62    25    58 1   
@<TRIPOS>SUBSTRUCTURE
     1 ZL8         1 TEMP              0 ****  ****    0 ROOT
