@<TRIPOS>MOLECULE
ZL8
   59    62     1     0     0
SMALL
abcg2


@<TRIPOS>ATOM
      1 N1         -22.9370    13.0790    29.2530 n          1 ZL8      -0.404800
      2 N3         -26.4710    12.4450    32.9790 ns         1 ZL8      -0.531900
      3 C4         -22.1070    14.2010    26.0610 ca         1 ZL8      -0.072000
      4 C5         -21.9430    14.3800    27.4330 ca         1 ZL8      -0.125600
      5 C6         -21.6880    15.6510    27.9440 ca         1 ZL8      -0.083000
      6 C7         -21.9470    13.1800    28.3400 c          1 ZL8       0.608700
      7 C8         -24.0890    13.9810    29.3000 c3         1 ZL8       0.105000
      8 C10        -24.8070    14.2850    31.7320 c3         1 ZL8       0.110000
      9 C13        -25.2610    11.9790    32.5520 c          1 ZL8       0.657100
     10 C15        -28.1370    10.8220    31.9910 c3         1 ZL8      -0.183400
     11 C17        -29.6000    13.2730    31.1580 c6         1 ZL8       0.110000
     12 C20        -27.1010    16.9880    29.2820 cc         1 ZL8      -0.227000
     13 C21        -27.2140    15.7620    28.6960 cd         1 ZL8      -0.122000
     14 C22        -27.9450    14.8350    29.4990 cd         1 ZL8      -0.124300
     15 C1         -21.6070    16.7240    27.0700 ca         1 ZL8       0.116000
     16 C11        -23.0600    12.4640    31.6710 c3         1 ZL8       0.102000
     17 C12        -22.9160    11.9880    30.2230 c3         1 ZL8       0.067000
     18 C14        -27.6020    11.5740    33.2360 c3         1 ZL8       0.136000
     19 C16        -27.8610    11.5260    30.6720 c          1 ZL8       0.605100
     20 C18        -29.1590    14.6340    31.7180 c6         1 ZL8      -0.021100
     21 C19        -28.3820    15.3760    30.6750 cc         1 ZL8      -0.210300
     22 C2         -21.7850    16.5670    25.7030 ca         1 ZL8      -0.093000
     23 C23        -28.2030    13.3960    29.1540 c6         1 ZL8       0.153300
     24 C3         -22.0380    15.2930    25.2050 ca         1 ZL8      -0.107000
     25 C9         -24.0880    14.8920    30.5320 c3         1 ZL8      -0.108400
     26 N2         -24.4050    12.9040    32.0140 n          1 ZL8      -0.436800
     27 N4         -28.5490    12.6500    30.3610 n          1 ZL8      -0.418800
     28 O1         -21.0430    12.3470    28.2210 o          1 ZL8      -0.596100
     29 O2         -24.9600    10.7830    32.6650 o          1 ZL8      -0.635100
     30 O3         -27.0000    11.0680    29.9140 o          1 ZL8      -0.597100
     31 S1         -27.8840    17.0270    30.8210 ss         1 ZL8       0.183000
     32 CL1        -21.2790    18.3200    27.7150 cl         1 ZL8      -0.212000
     33 H15        -26.6590    13.4280    32.9310 hn         1 ZL8       0.307500
     34 H3         -22.2950    13.2110    25.6680 ha         1 ZL8       0.132000
     35 H4         -21.5530    15.8030    29.0060 ha         1 ZL8       0.133000
     36 H6         -24.0990    14.5750    28.3930 h1         1 ZL8       0.060200
     37 H5         -24.9930    13.3670    29.2900 h1         1 ZL8       0.060200
     38 H9         -24.6600    14.9220    32.6110 h1         1 ZL8       0.040200
     39 H10        -25.8690    14.2900    31.4900 h1         1 ZL8       0.040200
     40 H19        -27.6370     9.8620    31.9060 hc         1 ZL8       0.077700
     41 H18        -29.2030    10.6310    32.1240 hc         1 ZL8       0.077700
     42 H21        -29.9080    12.6120    31.9610 h1         1 ZL8       0.054700
     43 H24        -26.5950    17.8640    28.9110 h4         1 ZL8       0.156000
     44 H25        -26.7800    15.5160    27.7370 ha         1 ZL8       0.140000
     45 H11        -22.3550    13.2710    31.8750 h1         1 ZL8       0.065700
     46 H12        -22.8080    11.6300    32.3200 h1         1 ZL8       0.065700
     47 H14        -21.9700    11.4680    30.1050 h1         1 ZL8       0.080700
     48 H13        -23.7250    11.2880    29.9970 h1         1 ZL8       0.080700
     49 H17        -27.3380    10.8340    33.9920 h1         1 ZL8       0.052200
     50 H16        -28.3790    12.2050    33.6610 h1         1 ZL8       0.052200
     51 H22        -30.0470    15.1930    32.0220 hc         1 ZL8       0.055200
     52 H23        -28.5580    14.5000    32.6200 hc         1 ZL8       0.055200
     53 H1         -21.7240    17.4210    25.0420 ha         1 ZL8       0.131000
     54 H26        -29.0200    13.3120    28.4280 h1         1 ZL8       0.074200
     55 H27        -27.3220    12.9390    28.7130 h1         1 ZL8       0.074200
     56 H2         -22.1790    15.1560    24.1400 ha         1 ZL8       0.123000
     57 H8         -23.0620    15.1650    30.7800 hc         1 ZL8       0.056200
     58 H7         -24.6120    15.8170    30.2870 hc         1 ZL8       0.056200
     59 H20        -30.4640    13.4180    30.5040 h1         1 ZL8       0.054700
@<TRIPOS>BOND
     1     1     6 1   
     2     1     7 1   
     3     1    17 1   
     4     2     9 1   
     5     2    18 1   
     6     2    33 1   
     7     3     4 ar  
     8     3    24 ar  
     9     3    34 1   
    10     4     5 ar  
    11     4     6 1   
    12     5    15 ar  
    13     5    35 1   
    14     6    28 2   
    15     7    25 1   
    16     7    36 1   
    17     7    37 1   
    18     8    25 1   
    19     8    26 1   
    20     8    38 1   
    21     8    39 1   
    22     9    26 1   
    23     9    29 2   
    24    10    18 1   
    25    10    19 1   
    26    10    40 1   
    27    10    41 1   
    28    11    20 1   
    29    11    27 1   
    30    11    42 1   
    31    11    59 1   
    32    12    13 2   
    33    12    31 1   
    34    12    43 1   
    35    13    14 1   
    36    13    44 1   
    37    14    21 2   
    38    14    23 1   
    39    15    22 ar  
    40    15    32 1   
    41    16    17 1   
    42    16    26 1   
    43    16    45 1   
    44    16    46 1   
    45    17    47 1   
    46    17    48 1   
    47    18    49 1   
    48    18    50 1   
    49    19    27 1   
    50    19    30 2   
    51    20    21 1   
    52    20    51 1   
    53    20    52 1   
    54    21    31 1   
    55    22    24 ar  
    56    22    53 1   
    57    23    27 1   
    58    23    54 1   
    59    23    55 1   
    60    24    56 1   
    61    25    57 1   
    62    25    58 1   
@<TRIPOS>SUBSTRUCTURE
     1 ZL8         1 TEMP              0 ****  ****    0 ROOT
