@<TRIPOS>MOLECULE
ZL9
   51    53     1     0     0
SMALL
No Charge or Current Charge


@<TRIPOS>ATOM
      1 C01        160.2100   177.8640   147.6270 c3         1 ZL9       0.144900
      2 C03        159.1810   175.6340   147.3080 ca         1 ZL9       0.126100
      3 C04        158.0630   175.9720   148.1060 ca         1 ZL9      -0.193000
      4 C05        157.0380   175.0350   148.3200 ca         1 ZL9      -0.075000
      5 C06        157.1200   173.7590   147.7420 ca         1 ZL9      -0.138000
      6 C07        158.2250   173.4110   146.9470 ca         1 ZL9      -0.094000
      7 C08        159.2630   174.3460   146.7240 ca         1 ZL9       0.065100
      8 C10        160.5360   172.7560   145.3130 c3         1 ZL9       0.124600
      9 C11        161.8760   172.7780   144.5340 c3         1 ZL9       0.156800
     10 C13        161.3110   171.0520   142.7870 c3         1 ZL9       0.162800
     11 C14        161.8590   169.7880   142.1000 c3         1 ZL9      -0.113400
     12 C15        161.8300   168.5270   142.9960 c3         1 ZL9       0.162600
     13 C17        163.5620   167.1610   141.8470 ca         1 ZL9       0.155100
     14 C18        164.6470   167.9100   142.3610 ca         1 ZL9      -0.196000
     15 C19        165.9630   167.6250   141.9470 ca         1 ZL9      -0.062000
     16 C20        166.2010   166.5860   141.0350 ca         1 ZL9       0.036100
     17 C22        167.7580   164.9760   140.1020 c6         1 ZL9       0.073600
     18 C23        166.6580   164.5160   139.1240 c          1 ZL9       0.542000
     19 C26        165.1190   165.8400   140.5190 ca         1 ZL9      -0.041000
     20 C27        163.8060   166.1280   140.9260 ca         1 ZL9      -0.171000
     21 N12        162.1920   171.4700   143.8970 n7         1 ZL9      -0.870400
     22 N24        165.3920   164.8510   139.5510 ns         1 ZL9      -0.142000
     23 O02        160.2080   176.5340   147.0760 os         1 ZL9      -0.327100
     24 O09        160.3680   174.0380   145.9460 os         1 ZL9      -0.347100
     25 O16        162.2500   167.3890   142.2160 os         1 ZL9      -0.346100
     26 O21        167.4930   166.3080   140.6260 os         1 ZL9      -0.324100
     27 O25        166.8810   163.9700   138.0490 o          1 ZL9      -0.530000
     28 H1         161.1150   178.4010   147.3170 h1         1 ZL9       0.041367
     29 H2         159.3400   178.4330   147.2750 h1         1 ZL9       0.041367
     30 H3         160.1920   177.8320   148.7240 h1         1 ZL9       0.041367
     31 H4         157.9710   176.9510   148.5660 ha         1 ZL9       0.118000
     32 H5         156.1800   175.2980   148.9350 ha         1 ZL9       0.114000
     33 H6         156.3240   173.0360   147.9110 ha         1 ZL9       0.118000
     34 H7         158.2580   172.4150   146.5140 ha         1 ZL9       0.124000
     35 H8         159.7080   172.5590   144.6200 h1         1 ZL9       0.026700
     36 H9         160.5650   171.9570   146.0660 h1         1 ZL9       0.026700
     37 H10        162.6730   173.0490   145.2400 h1         1 ZL9       0.068200
     38 H11        161.8310   173.5740   143.7780 h1         1 ZL9       0.068200
     39 H12        161.2490   171.8530   142.0370 h1         1 ZL9       0.034700
     40 H13        160.2910   170.8550   143.1460 h1         1 ZL9       0.034700
     41 H14        162.8790   169.9850   141.7520 hc         1 ZL9       0.061700
     42 H15        161.2540   169.5940   141.2070 hc         1 ZL9       0.061700
     43 H16        160.8000   168.3720   143.3420 h1         1 ZL9       0.053700
     44 H17        162.4570   168.6560   143.8870 h1         1 ZL9       0.053700
     45 H18        164.4920   168.7110   143.0770 ha         1 ZL9       0.133000
     46 H19        166.7970   168.2030   142.3390 ha         1 ZL9       0.131000
     47 H20        167.7770   164.2590   140.9330 h1         1 ZL9       0.082700
     48 H21        168.7260   164.9600   139.5840 h1         1 ZL9       0.082700
     49 H22        162.9710   165.5590   140.5240 ha         1 ZL9       0.132000
     50 H23        162.1870   170.7430   144.6220 hn         1 ZL9       0.407000
     51 H25        164.6140   164.5320   138.9880 hn         1 ZL9       0.165000
@<TRIPOS>BOND
     1     1    23 1   
     2     1    28 1   
     3     1    29 1   
     4     1    30 1   
     5     2     3 ar  
     6     2     7 ar  
     7     2    23 1   
     8     3     4 ar  
     9     3    31 1   
    10     4     5 ar  
    11     4    32 1   
    12     5     6 ar  
    13     5    33 1   
    14     6     7 ar  
    15     6    34 1   
    16     7    24 1   
    17     8     9 1   
    18     8    24 1   
    19     8    35 1   
    20     8    36 1   
    21     9    21 1   
    22     9    37 1   
    23     9    38 1   
    24    10    11 1   
    25    10    21 1   
    26    10    39 1   
    27    10    40 1   
    28    11    12 1   
    29    11    41 1   
    30    11    42 1   
    31    12    25 1   
    32    12    43 1   
    33    12    44 1   
    34    13    14 ar  
    35    13    20 ar  
    36    13    25 1   
    37    14    15 ar  
    38    14    45 1   
    39    15    16 ar  
    40    15    46 1   
    41    16    19 ar  
    42    16    26 1   
    43    17    18 1   
    44    17    26 1   
    45    17    47 1   
    46    17    48 1   
    47    18    22 1   
    48    18    27 2   
    49    19    20 ar  
    50    19    22 1   
    51    20    49 1   
    52    21    50 1   
    53    22    51 1   
@<TRIPOS>SUBSTRUCTURE
     1 ZL9         1 TEMP              0 ****  ****    0 ROOT
