@<TRIPOS>MOLECULE
ZL9
   51    53     1     0     0
SMALL
abcg2


@<TRIPOS>ATOM
      1 C01        159.9180   176.8510   145.3530 c3         1 ZL9       0.144900
      2 C03        159.2650   175.1790   146.8980 ca         1 ZL9       0.126100
      3 C04        158.0740   175.8250   147.2130 ca         1 ZL9      -0.193000
      4 C05        157.1970   175.2650   148.1370 ca         1 ZL9      -0.075000
      5 C06        157.4980   174.0650   148.7570 ca         1 ZL9      -0.138000
      6 C07        158.6890   173.4160   148.4450 ca         1 ZL9      -0.094000
      7 C08        159.5710   173.9630   147.5310 ca         1 ZL9       0.065100
      8 C10        160.6690   172.3680   146.2070 c3         1 ZL9       0.124600
      9 C11        162.0890   171.9750   145.8190 c3         1 ZL9       0.156800
     10 C13        161.5490   171.1740   143.5680 c3         1 ZL9       0.162800
     11 C14        162.0670   170.2540   142.4700 c3         1 ZL9      -0.113400
     12 C15        161.7190   168.7950   142.7230 c3         1 ZL9       0.162600
     13 C17        163.4050   167.6180   141.4930 ca         1 ZL9       0.155100
     14 C18        164.4260   167.9280   142.3880 ca         1 ZL9      -0.196000
     15 C19        165.7270   167.5130   142.1220 ca         1 ZL9      -0.062000
     16 C20        166.0230   166.8150   140.9700 ca         1 ZL9       0.036100
     17 C22        167.4200   165.2400   139.9750 c6         1 ZL9       0.073600
     18 C23        166.5100   165.1560   138.7640 c          1 ZL9       0.542000
     19 C26        165.0010   166.5050   140.0740 ca         1 ZL9      -0.041000
     20 C27        163.7010   166.8990   140.3350 ca         1 ZL9      -0.171000
     21 N12        162.1790   170.9020   144.8510 n7         1 ZL9      -0.870400
     22 N24        165.3420   165.8250   138.9070 ns         1 ZL9      -0.142000
     23 O02        160.1770   175.6340   146.0200 os         1 ZL9      -0.327100
     24 O09        160.7500   173.3460   147.2400 os         1 ZL9      -0.347100
     25 O16        162.1060   167.9440   141.6550 os         1 ZL9      -0.346100
     26 O21        167.3030   166.4640   140.6690 os         1 ZL9      -0.324100
     27 O25        166.7960   164.5070   137.7780 o          1 ZL9      -0.530000
     28 H1         160.7690   177.0340   144.7020 h1         1 ZL9       0.041367
     29 H2         159.0120   176.7990   144.7420 h1         1 ZL9       0.041367
     30 H3         159.8230   177.6880   146.0510 h1         1 ZL9       0.041367
     31 H4         157.8120   176.7650   146.7450 ha         1 ZL9       0.118000
     32 H5         156.2750   175.7830   148.3680 ha         1 ZL9       0.114000
     33 H6         156.8170   173.6310   149.4760 ha         1 ZL9       0.118000
     34 H7         158.9440   172.4790   148.9250 ha         1 ZL9       0.124000
     35 H8         160.1280   172.7690   145.3430 h1         1 ZL9       0.026700
     36 H9         160.1180   171.4870   146.5610 h1         1 ZL9       0.026700
     37 H10        162.6300   171.6680   146.7180 h1         1 ZL9       0.068200
     38 H11        162.6080   172.8520   145.4210 h1         1 ZL9       0.068200
     39 H12        161.7890   172.2030   143.2870 h1         1 ZL9       0.034700
     40 H13        160.4510   171.1140   143.6000 h1         1 ZL9       0.034700
     41 H14        163.1480   170.3860   142.3790 hc         1 ZL9       0.061700
     42 H15        161.6240   170.5590   141.5190 hc         1 ZL9       0.061700
     43 H16        160.6350   168.6850   142.7950 h1         1 ZL9       0.053700
     44 H17        162.1390   168.4370   143.6680 h1         1 ZL9       0.053700
     45 H18        164.2380   168.4840   143.2960 ha         1 ZL9       0.133000
     46 H19        166.5210   167.7590   142.8160 ha         1 ZL9       0.131000
     47 H20        167.1940   164.3890   140.6320 h1         1 ZL9       0.082700
     48 H21        168.4540   165.1490   139.6490 h1         1 ZL9       0.082700
     49 H22        162.9100   166.6550   139.6340 ha         1 ZL9       0.132000
     50 H23        161.7960   170.0580   145.2570 hn         1 ZL9       0.407000
     51 H25        164.6580   165.7520   138.1650 hn         1 ZL9       0.165000
@<TRIPOS>BOND
     1     1    23 1   
     2     1    28 1   
     3     1    29 1   
     4     1    30 1   
     5     2     3 ar  
     6     2     7 ar  
     7     2    23 1   
     8     3     4 ar  
     9     3    31 1   
    10     4     5 ar  
    11     4    32 1   
    12     5     6 ar  
    13     5    33 1   
    14     6     7 ar  
    15     6    34 1   
    16     7    24 1   
    17     8     9 1   
    18     8    24 1   
    19     8    35 1   
    20     8    36 1   
    21     9    21 1   
    22     9    37 1   
    23     9    38 1   
    24    10    11 1   
    25    10    21 1   
    26    10    39 1   
    27    10    40 1   
    28    11    12 1   
    29    11    41 1   
    30    11    42 1   
    31    12    25 1   
    32    12    43 1   
    33    12    44 1   
    34    13    14 ar  
    35    13    20 ar  
    36    13    25 1   
    37    14    15 ar  
    38    14    45 1   
    39    15    16 ar  
    40    15    46 1   
    41    16    19 ar  
    42    16    26 1   
    43    17    18 1   
    44    17    26 1   
    45    17    47 1   
    46    17    48 1   
    47    18    22 1   
    48    18    27 2   
    49    19    20 ar  
    50    19    22 1   
    51    20    49 1   
    52    21    50 1   
    53    22    51 1   
@<TRIPOS>SUBSTRUCTURE
     1 ZL9         1 TEMP              0 ****  ****    0 ROOT
