@<TRIPOS>MOLECULE
ZLA
   78    84     1     0     0
SMALL
bcc


@<TRIPOS>ATOM
      1 CAA         -3.1640     7.9760    14.9020 ca         1 ZLA      -0.157300
      2 CAB         -2.7890     8.3480    16.1630 ca         1 ZLA      -0.118000
      3 CAC         -3.6440     9.1290    16.9720 ca         1 ZLA      -0.124000
      4 CAD         -4.8680     9.5290    16.5100 ca         1 ZLA      -0.156300
      5 CAE         -5.2770     9.1590    15.2110 ca         1 ZLA       0.285300
      6 CAF         -4.4190     8.3760    14.3990 ca         1 ZLA       0.303300
      7 CAI         -6.8180     9.1850    13.5430 ca         1 ZLA       0.255500
      8 CAJ         -5.9600     8.4020    12.7320 ca         1 ZLA       0.350900
      9 CAK         -8.1700     9.5710    13.0200 c          1 ZLA       0.571600
     10 CAN        -10.3270    10.5420    13.5970 c3         1 ZLA       0.092700
     11 CAQ        -11.1330     9.3190    13.8920 cc         1 ZLA       0.198600
     12 CAR        -11.1760     8.1350    13.2040 cd         1 ZLA      -0.186600
     13 CAT        -12.0650     5.9270    13.8150 ca         1 ZLA      -0.029200
     14 CAU        -11.1790     5.0960    14.5040 ca         1 ZLA      -0.020300
     15 CAV        -13.0020     5.4480    12.9050 ca         1 ZLA      -0.020300
     16 CAW        -13.0190     4.0760    12.6680 ca         1 ZLA      -0.120500
     17 CAX        -12.1250     3.2210    13.3000 ca         1 ZLA      -0.045300
     18 CAY        -11.2330     3.7370    14.2380 ca         1 ZLA      -0.120500
     19 CAZ        -10.1970     5.6810    15.4580 cx         1 ZLA      -0.094900
     20 CBA         -8.9670     6.3720    14.9390 cx         1 ZLA      -0.123400
     21 CBB         -8.8480     5.0750    15.6770 cx         1 ZLA      -0.123400
     22 CBC        -13.9050     6.4000    12.2090 cx         1 ZLA      -0.094900
     23 CBD        -14.6290     6.0430    10.9480 cx         1 ZLA      -0.123400
     24 CBE        -13.4890     7.0090    10.8960 cx         1 ZLA      -0.123400
     25 CBF        -12.0170     1.7800    12.8940 c3         1 ZLA      -0.141100
     26 CBG        -10.8360     1.4900    11.9610 c          1 ZLA       0.675100
     27 CBJ         -9.2370     2.5460    10.3740 c6         1 ZLA      -0.005600
     28 CBK         -7.5390     3.2960    12.1190 c6         1 ZLA      -0.075400
     29 CBL         -7.9120     2.2420    11.0830 c6         1 ZLA      -0.074900
     30 CBM         -9.1670     3.9670     9.7830 c6         1 ZLA      -0.074900
     31 CBN         -8.7700     5.0380    10.7990 c6         1 ZLA      -0.075400
     32 CBO         -7.4630     4.6840    11.4970 c6         1 ZLA      -0.069400
     33 CBP         -9.5410     1.5710     9.1910 c          1 ZLA       0.942600
     34 NAG         -4.7920     8.0080    13.1520 nb         1 ZLA      -0.626000
     35 NAH         -6.4820     9.5490    14.7490 nb         1 ZLA      -0.635000
     36 NAL         -8.9180    10.3070    13.8500 ns         1 ZLA      -0.544900
     37 NAO        -12.3150     7.9620    15.0790 nd         1 ZLA      -0.197800
     38 NAP        -11.8510     9.1610    15.0260 nc         1 ZLA      -0.373000
     39 NAS        -11.9140     7.3290    13.9850 na         1 ZLA       0.183300
     40 NBH        -10.3360     2.5540    11.3270 ns         1 ZLA      -0.524900
     41 OAM         -8.5300     9.2030    11.9110 o          1 ZLA      -0.597100
     42 OBI        -10.4170     0.3480    11.8360 o          1 ZLA      -0.604100
     43 OBQ         -8.5690     0.9780     8.6880 o          1 ZLA      -0.820300
     44 OBR        -10.7250     1.5270     8.8120 o          1 ZLA      -0.820300
     45 H1          -2.5180     7.3770    14.2730 ha         1 ZLA       0.156000
     46 H2          -1.8260     8.0440    16.5520 ha         1 ZLA       0.135000
     47 H3          -3.3240     9.4090    17.9660 ha         1 ZLA       0.134000
     48 H4          -5.5350    10.1270    17.1160 ha         1 ZLA       0.148000
     49 H5          -6.2630     8.1080    11.7350 h4         1 ZLA       0.063100
     50 H6         -10.4620    10.8650    12.5660 h1         1 ZLA       0.068200
     51 H7         -10.6480    11.3610    14.2390 h1         1 ZLA       0.068200
     52 H8         -10.7390     7.8080    12.2770 h4         1 ZLA       0.209000
     53 H9         -13.7220     3.6650    11.9540 ha         1 ZLA       0.148500
     54 H10        -10.5430     3.0690    14.7380 ha         1 ZLA       0.148500
     55 H11        -10.6470     6.1430    16.3310 hc         1 ZLA       0.092200
     56 H12         -8.7980     6.3540    13.8690 hc         1 ZLA       0.075950
     57 H13         -8.6530     7.2860    15.4260 hc         1 ZLA       0.075950
     58 H14         -8.4540     5.0910    16.6850 hc         1 ZLA       0.075950
     59 H15         -8.5690     4.1960    15.1100 hc         1 ZLA       0.075950
     60 H16        -14.4320     7.0750    12.8760 hc         1 ZLA       0.092200
     61 H17        -15.6340     6.4260    10.8290 hc         1 ZLA       0.075950
     62 H18        -14.4790     5.0630    10.5160 hc         1 ZLA       0.075950
     63 H19        -12.5590     6.6670    10.4590 hc         1 ZLA       0.075950
     64 H20        -13.6980     8.0590    10.7380 hc         1 ZLA       0.075950
     65 H21        -12.9270     1.4530    12.3840 hc         1 ZLA       0.070700
     66 H22        -11.9000     1.1370    13.7680 hc         1 ZLA       0.070700
     67 H23         -6.5810     3.0350    12.5760 hc         1 ZLA       0.018450
     68 H24         -8.2720     3.3020    12.9340 hc         1 ZLA       0.018450
     69 H25         -7.9510     1.2540    11.5430 hc         1 ZLA       0.056200
     70 H26         -7.1260     2.1950    10.3260 hc         1 ZLA       0.056200
     71 H27        -10.1290     4.2160     9.3250 hc         1 ZLA       0.056200
     72 H28         -8.4310     3.9580     8.9740 hc         1 ZLA       0.056200
     73 H29         -8.6850     6.0020    10.2910 hc         1 ZLA       0.018450
     74 H30         -9.5540     5.1720    11.5540 hc         1 ZLA       0.018450
     75 H31         -6.6440     4.7120    10.7690 hc         1 ZLA       0.022200
     76 H32         -7.2240     5.4340    12.2560 hc         1 ZLA       0.022200
     77 H33         -8.5590    10.4820    14.7770 hn         1 ZLA       0.338500
     78 H34        -10.8080     3.4320    11.4670 hn         1 ZLA       0.290500
@<TRIPOS>BOND
     1     1     2 ar  
     2     1     6 ar  
     3     1    45 1   
     4     2     3 ar  
     5     2    46 1   
     6     3     4 ar  
     7     3    47 1   
     8     4     5 ar  
     9     4    48 1   
    10     5     6 ar  
    11     5    35 ar  
    12     6    34 ar  
    13     7     8 ar  
    14     7     9 1   
    15     7    35 ar  
    16     8    34 ar  
    17     8    49 1   
    18     9    36 1   
    19     9    41 2   
    20    10    11 1   
    21    10    36 1   
    22    10    50 1   
    23    10    51 1   
    24    11    12 2   
    25    11    38 1   
    26    12    39 1   
    27    12    52 1   
    28    13    14 ar  
    29    13    15 ar  
    30    13    39 1   
    31    14    18 ar  
    32    14    19 1   
    33    15    16 ar  
    34    15    22 1   
    35    16    17 ar  
    36    16    53 1   
    37    17    18 ar  
    38    17    25 1   
    39    18    54 1   
    40    19    20 1   
    41    19    21 1   
    42    19    55 1   
    43    20    21 1   
    44    20    56 1   
    45    20    57 1   
    46    21    58 1   
    47    21    59 1   
    48    22    23 1   
    49    22    24 1   
    50    22    60 1   
    51    23    24 1   
    52    23    61 1   
    53    23    62 1   
    54    24    63 1   
    55    24    64 1   
    56    25    26 1   
    57    25    65 1   
    58    25    66 1   
    59    26    40 1   
    60    26    42 2   
    61    27    29 1   
    62    27    30 1   
    63    27    33 1   
    64    27    40 1   
    65    28    29 1   
    66    28    32 1   
    67    28    67 1   
    68    28    68 1   
    69    29    69 1   
    70    29    70 1   
    71    30    31 1   
    72    30    71 1   
    73    30    72 1   
    74    31    32 1   
    75    31    73 1   
    76    31    74 1   
    77    32    75 1   
    78    32    76 1   
    79    33    43 1   
    80    33    44 1   
    81    36    77 1   
    82    37    38 2   
    83    37    39 1   
    84    40    78 1   
@<TRIPOS>SUBSTRUCTURE
     1 ZLA         1 TEMP              0 ****  ****    0 ROOT
