@<TRIPOS>MOLECULE
ZLA
   78    84     1     0     0
SMALL
No Charge or Current Charge


@<TRIPOS>ATOM
      1 CAA         -2.3510     9.1460    17.2440 ca         1 ZLA      -0.074000
      2 CAB         -2.2780     9.7130    18.5270 ca         1 ZLA      -0.100000
      3 CAC         -3.3760    10.4130    19.0470 ca         1 ZLA      -0.106000
      4 CAD         -4.5470    10.5470    18.2820 ca         1 ZLA      -0.073000
      5 CAE         -4.6400     9.9860    16.9940 ca         1 ZLA       0.220000
      6 CAF         -3.5160     9.2690    16.4620 ca         1 ZLA       0.238000
      7 CAI         -5.8210     9.5670    15.0330 ca         1 ZLA       0.255500
      8 CAJ         -4.7060     8.8610    14.5190 ca         1 ZLA       0.350900
      9 CAK         -7.0740     9.6810    14.1800 c          1 ZLA       0.504600
     10 CAN         -9.4600    10.5180    14.1600 c3         1 ZLA       0.092700
     11 CAQ        -10.3080     9.2860    14.3570 cc         1 ZLA       0.133300
     12 CAR        -10.2200     8.1090    13.6790 cd         1 ZLA      -0.154000
     13 CAT        -11.2560     6.0040    13.9800 ca         1 ZLA      -0.029200
     14 CAU        -10.4440     5.0560    14.6530 ca         1 ZLA      -0.020300
     15 CAV        -12.1580     5.5770    12.9760 ca         1 ZLA      -0.020300
     16 CAW        -12.2540     4.2080    12.6680 ca         1 ZLA      -0.102500
     17 CAX        -11.4540     3.2630    13.3320 ca         1 ZLA      -0.045300
     18 CAY        -10.5560     3.6920    14.3230 ca         1 ZLA      -0.102500
     19 CAZ         -9.4780     5.4790    15.7360 cx         1 ZLA      -0.094900
     20 CBA         -8.2030     6.2290    15.4160 cx         1 ZLA      -0.123400
     21 CBB         -8.1320     4.8160    15.9370 cx         1 ZLA      -0.123400
     22 CBC        -13.0300     6.5660    12.2420 cx         1 ZLA      -0.094900
     23 CBD        -13.4080     6.4070    10.7850 cx         1 ZLA      -0.123400
     24 CBE        -12.4500     7.4960    11.1990 cx         1 ZLA      -0.123400
     25 CBF        -11.5340     1.7920    12.9460 c3         1 ZLA      -0.141100
     26 CBG        -10.5600     1.5200    11.7980 c          1 ZLA       0.608100
     27 CBJ        -10.4050     1.5950     9.2310 c6         1 ZLA      -0.005600
     28 CBK        -10.1670     4.1920     9.0840 c6         1 ZLA      -0.075400
     29 CBL         -9.4380     2.8210     9.0520 c6         1 ZLA      -0.074900
     30 CBM        -11.4830     1.7190     8.1010 c6         1 ZLA      -0.074900
     31 CBN        -12.2360     3.0790     8.1050 c6         1 ZLA      -0.075400
     32 CBO        -11.2520     4.2640     7.9870 c6         1 ZLA      -0.069400
     33 CBP         -9.6620     0.2060     9.0360 c          1 ZLA       0.732000
     34 NAG         -3.5510     8.7070    15.2240 nb         1 ZLA      -0.626000
     35 NAH         -5.7890    10.1350    16.2830 nb         1 ZLA      -0.635000
     36 NAL         -8.1240    10.3740    14.7520 ns         1 ZLA      -0.477900
     37 NAO        -11.7940     8.0180    15.3290 nd         1 ZLA      -0.197800
     38 NAP        -11.2700     9.2220    15.3370 nc         1 ZLA      -0.373000
     39 NAS        -11.1730     7.3580    14.3090 na         1 ZLA       0.234000
     40 NBH        -11.1060     1.6930    10.5430 ns         1 ZLA      -0.457900
     41 OAM         -7.1700     9.1910    13.0600 o          1 ZLA      -0.597100
     42 OBI         -9.3840     1.2440    11.9890 o          1 ZLA      -0.604100
     43 OBQ         -8.4370     0.1880     9.0710 o          1 ZLA      -0.715000
     44 OBR        -10.3150    -0.8090     9.2540 o          1 ZLA      -0.715000
     45 H1          -1.4960     8.6040    16.8470 ha         1 ZLA       0.138000
     46 H2          -1.3700     9.6080    19.1180 ha         1 ZLA       0.117000
     47 H3          -3.3220    10.8530    20.0400 ha         1 ZLA       0.116000
     48 H4          -5.3950    11.0910    18.6900 ha         1 ZLA       0.130000
     49 H5          -4.7340     8.4080    13.5290 h4         1 ZLA       0.063100
     50 H6          -9.3610    10.7220    13.0860 h1         1 ZLA       0.068200
     51 H7          -9.9590    11.3820    14.6190 h1         1 ZLA       0.068200
     52 H8          -9.5810     7.7640    12.8770 h4         1 ZLA       0.191000
     53 H9         -12.9520     3.8750    11.9050 ha         1 ZLA       0.130500
     54 H10         -9.9410     2.9580    14.8380 ha         1 ZLA       0.130500
     55 H11        -10.0010     5.7810    16.6410 hc         1 ZLA       0.092200
     56 H12         -7.9490     6.3890    14.3710 hc         1 ZLA       0.075950
     57 H13         -7.9120     7.0360    16.0850 hc         1 ZLA       0.075950
     58 H14         -7.7880     4.6680    16.9580 hc         1 ZLA       0.075950
     59 H15         -7.8190     4.0440    15.2380 hc         1 ZLA       0.075950
     60 H16        -13.7970     6.9850    12.8910 hc         1 ZLA       0.092200
     61 H17        -14.4120     6.7020    10.4870 hc         1 ZLA       0.075950
     62 H18        -12.9980     5.5690    10.2280 hc         1 ZLA       0.075950
     63 H19        -11.4040     7.3720    10.9290 hc         1 ZLA       0.075950
     64 H20        -12.8060     8.5230    11.1840 hc         1 ZLA       0.075950
     65 H21        -12.5580     1.5710    12.6220 hc         1 ZLA       0.070700
     66 H22        -11.2700     1.1610    13.8030 hc         1 ZLA       0.070700
     67 H23         -9.4400     5.0020     8.9360 hc         1 ZLA       0.018450
     68 H24        -10.6180     4.3600    10.0710 hc         1 ZLA       0.018450
     69 H25         -8.6660     2.8100     9.8330 hc         1 ZLA       0.056200
     70 H26         -8.8990     2.7280     8.0980 hc         1 ZLA       0.056200
     71 H27        -12.2140     0.9050     8.1930 hc         1 ZLA       0.056200
     72 H28        -11.0020     1.5790     7.1230 hc         1 ZLA       0.056200
     73 H29        -12.9480     3.1090     7.2700 hc         1 ZLA       0.018450
     74 H30        -12.8340     3.1820     9.0210 hc         1 ZLA       0.018450
     75 H31        -10.7760     4.2510     6.9960 hc         1 ZLA       0.022200
     76 H32        -11.7970     5.2150     8.0580 hc         1 ZLA       0.022200
     77 H33         -7.9550    10.7380    15.6860 hn         1 ZLA       0.338500
     78 H34        -12.0880     1.9320    10.5230 hn         1 ZLA       0.290500
@<TRIPOS>BOND
     1     1     2 ar  
     2     1     6 ar  
     3     1    45 1   
     4     2     3 ar  
     5     2    46 1   
     6     3     4 ar  
     7     3    47 1   
     8     4     5 ar  
     9     4    48 1   
    10     5     6 ar  
    11     5    35 ar  
    12     6    34 ar  
    13     7     8 ar  
    14     7     9 1   
    15     7    35 ar  
    16     8    34 ar  
    17     8    49 1   
    18     9    36 1   
    19     9    41 2   
    20    10    11 1   
    21    10    36 1   
    22    10    50 1   
    23    10    51 1   
    24    11    12 2   
    25    11    38 1   
    26    12    39 1   
    27    12    52 1   
    28    13    14 ar  
    29    13    15 ar  
    30    13    39 1   
    31    14    18 ar  
    32    14    19 1   
    33    15    16 ar  
    34    15    22 1   
    35    16    17 ar  
    36    16    53 1   
    37    17    18 ar  
    38    17    25 1   
    39    18    54 1   
    40    19    20 1   
    41    19    21 1   
    42    19    55 1   
    43    20    21 1   
    44    20    56 1   
    45    20    57 1   
    46    21    58 1   
    47    21    59 1   
    48    22    23 1   
    49    22    24 1   
    50    22    60 1   
    51    23    24 1   
    52    23    61 1   
    53    23    62 1   
    54    24    63 1   
    55    24    64 1   
    56    25    26 1   
    57    25    65 1   
    58    25    66 1   
    59    26    40 1   
    60    26    42 2   
    61    27    29 1   
    62    27    30 1   
    63    27    33 1   
    64    27    40 1   
    65    28    29 1   
    66    28    32 1   
    67    28    67 1   
    68    28    68 1   
    69    29    69 1   
    70    29    70 1   
    71    30    31 1   
    72    30    71 1   
    73    30    72 1   
    74    31    32 1   
    75    31    73 1   
    76    31    74 1   
    77    32    75 1   
    78    32    76 1   
    79    33    43 1   
    80    33    44 1   
    81    36    77 1   
    82    37    38 2   
    83    37    39 1   
    84    40    78 1   
@<TRIPOS>SUBSTRUCTURE
     1 ZLA         1 TEMP              0 ****  ****    0 ROOT
