@<TRIPOS>MOLECULE
ZLC
   42    44     1     0     0
SMALL
abcg2


@<TRIPOS>ATOM
      1 N1         -19.3220    13.4150    25.9630 n          1 ZLC      -0.407800
      2 N3         -16.3430    17.4380    25.9010 ns         1 ZLC      -0.509900
      3 C4         -22.2640    11.1570    26.2950 cc         1 ZLC      -0.097000
      4 C5         -21.4460    12.2470    26.2950 cd         1 ZLC       0.061500
      5 C6         -20.2120    12.4870    25.5280 c          1 ZLC       0.544600
      6 C7         -19.1570    13.8850    27.3370 c6         1 ZLC       0.088500
      7 C8         -19.0110    15.3970    27.3600 c6         1 ZLC       0.091000
      8 C10        -18.2050    13.7970    25.1090 c6         1 ZLC       0.088500
      9 C13        -16.2860    19.8900    26.2120 cc         1 ZLC      -0.229300
     10 C15        -17.9760    21.4850    26.0220 cd         1 ZLC      -0.128000
     11 C11        -17.1310    16.8670    26.8640 c          1 ZLC       0.650100
     12 C12        -15.5230    18.5890    26.2080 c3         1 ZLC       0.185300
     13 C14        -17.6000    20.1130    25.9150 cd         1 ZLC      -0.127000
     14 C16        -16.9410    22.2880    26.4000 cc         1 ZLC      -0.229000
     15 C2         -23.1590    12.7360    27.6080 cd         1 ZLC       0.162300
     16 C3         -23.3620    11.4680    27.1480 cc         1 ZLC      -0.198000
     17 C9         -18.0330    15.3150    25.1110 c6         1 ZLC       0.091000
     18 N2         -17.9310    15.8220    26.4750 n          1 ZLC      -0.433800
     19 O1         -21.9930    13.2220    27.0940 os         1 ZLC      -0.253000
     20 O2         -20.0410    11.8470    24.4830 o          1 ZLC      -0.597100
     21 O3         -17.0880    17.2530    28.0370 o          1 ZLC      -0.633100
     22 S1         -15.4950    21.3740    26.6300 ss         1 ZLC       0.177000
     23 H14        -16.5760    17.3050    24.9310 hn         1 ZLC       0.306500
     24 H5         -22.0950    10.2440    25.7490 ha         1 ZLC       0.156000
     25 H6         -19.9980    13.5850    27.9490 h1         1 ZLC       0.065450
     26 H7         -18.2490    13.4260    27.7440 h1         1 ZLC       0.065450
     27 H9         -19.9540    15.8560    27.0380 h1         1 ZLC       0.057700
     28 H8         -18.7840    15.7340    28.3660 h1         1 ZLC       0.057700
     29 H13        -18.3970    13.4500    24.0990 h1         1 ZLC       0.065450
     30 H12        -17.2870    13.3240    25.4730 h1         1 ZLC       0.065450
     31 H18        -18.9740    21.8530    25.8280 ha         1 ZLC       0.133000
     32 H3         -24.2130    14.5500    27.9860 hc         1 ZLC       0.059033
     33 H2         -24.8280    13.1260    28.8410 hc         1 ZLC       0.059033
     34 H1         -23.3330    13.9120    29.3780 hc         1 ZLC       0.059033
     35 H15        -15.0560    18.4310    27.1800 h1         1 ZLC       0.070200
     36 H16        -14.7210    18.6330    25.4700 h1         1 ZLC       0.070200
     37 H17        -18.2810    19.3240    25.6310 ha         1 ZLC       0.128000
     38 H19        -16.9370    23.3550    26.5590 h4         1 ZLC       0.150000
     39 H4         -24.2010    10.8360    27.3900 ha         1 ZLC       0.145000
     40 H10        -18.8820    15.7800    24.5950 h1         1 ZLC       0.057700
     41 H11        -17.1270    15.5350    24.5550 h1         1 ZLC       0.057700
     42 C1         -23.9250    13.6310    28.5030 c3         1 ZLC      -0.128400
@<TRIPOS>BOND
     1     1     5 1   
     2     1     6 1   
     3     1     8 1   
     4     2    11 1   
     5     2    12 1   
     6     2    23 1   
     7     3     4 2   
     8     3    16 1   
     9     3    24 1   
    10     4     5 1   
    11     4    19 1   
    12     5    20 2   
    13     6     7 1   
    14     6    25 1   
    15     6    26 1   
    16     7    18 1   
    17     7    27 1   
    18     7    28 1   
    19     8    17 1   
    20     8    29 1   
    21     8    30 1   
    22     9    12 1   
    23     9    13 2   
    24     9    22 1   
    25    10    13 1   
    26    10    14 2   
    27    10    31 1   
    28    11    18 1   
    29    11    21 2   
    30    12    35 1   
    31    12    36 1   
    32    13    37 1   
    33    14    22 1   
    34    14    38 1   
    35    15    16 2   
    36    15    19 1   
    37    15    42 1   
    38    16    39 1   
    39    17    18 1   
    40    17    40 1   
    41    17    41 1   
    42    32    42 1   
    43    33    42 1   
    44    34    42 1   
@<TRIPOS>SUBSTRUCTURE
     1 ZLC         1 TEMP              0 ****  ****    0 ROOT
