@<TRIPOS>MOLECULE
ZLC
   42    44     1     0     0
SMALL
No Charge or Current Charge


@<TRIPOS>ATOM
      1 N1         -20.0860    14.0090    25.8310 n          1 ZLC      -0.407800
      2 N3         -17.0850    18.1080    26.7280 ns         1 ZLC      -0.509900
      3 C4         -22.7540    11.3160    25.9010 cc         1 ZLC      -0.097000
      4 C5         -21.8820    12.3120    26.2600 cd         1 ZLC       0.061500
      5 C6         -21.0080    13.0690    25.2980 c          1 ZLC       0.544600
      6 C7         -19.2420    13.6930    27.0160 c6         1 ZLC       0.088500
      7 C8         -18.7520    14.9470    27.7740 c6         1 ZLC       0.091000
      8 C10        -19.3760    14.9340    24.9110 c6         1 ZLC       0.088500
      9 C13        -16.1670    20.2660    26.0670 cc         1 ZLC      -0.229300
     10 C15        -15.5500    21.3100    24.0710 cd         1 ZLC      -0.128000
     11 C11        -17.3950    17.0340    27.5200 c          1 ZLC       0.650100
     12 C12        -16.2950    19.2500    27.1650 c3         1 ZLC       0.185300
     13 C14        -15.4560    20.1600    24.8980 cd         1 ZLC      -0.127000
     14 C16        -16.3340    22.3030    24.6010 cc         1 ZLC      -0.229000
     15 C2         -22.9240    11.7110    28.0810 cd         1 ZLC       0.162300
     16 C3         -23.4170    10.9230    27.0790 cc         1 ZLC      -0.198000
     17 C9         -18.8340    16.2170    25.5930 c6         1 ZLC       0.091000
     18 N2         -18.1700    16.0220    26.9190 n          1 ZLC      -0.433800
     19 O1         -21.9860    12.5990    27.6100 os         1 ZLC      -0.253000
     20 O2         -21.1070    12.9170    24.0850 o          1 ZLC      -0.597100
     21 O3         -17.0150    16.9640    28.6780 o          1 ZLC      -0.633100
     22 S1         -16.9830    21.8250    26.1670 ss         1 ZLC       0.177000
     23 H14        -17.4270    18.1010    25.7790 hn         1 ZLC       0.306500
     24 H5         -22.9110    10.9040    24.9090 ha         1 ZLC       0.156000
     25 H6         -19.7360    13.0230    27.7260 h1         1 ZLC       0.065450
     26 H7         -18.3560    13.1480    26.6600 h1         1 ZLC       0.065450
     27 H9         -19.6020    15.3730    28.3260 h1         1 ZLC       0.057700
     28 H8         -18.0120    14.6280    28.5210 h1         1 ZLC       0.057700
     29 H13        -20.0420    15.2330    24.0890 h1         1 ZLC       0.065450
     30 H12        -18.5320    14.3930    24.4600 h1         1 ZLC       0.065450
     31 H18        -15.0510    21.3960    23.1100 ha         1 ZLC       0.133000
     32 H3         -23.7070    12.7030    29.8200 hc         1 ZLC       0.059033
     33 H2         -23.9910    10.9530    29.7910 hc         1 ZLC       0.059033
     34 H1         -22.3740    11.5820    30.1560 hc         1 ZLC       0.059033
     35 H15        -16.7740    19.7050    28.0430 h1         1 ZLC       0.070200
     36 H16        -15.2960    18.9030    27.4630 h1         1 ZLC       0.070200
     37 H17        -14.8770    19.2810    24.6300 ha         1 ZLC       0.128000
     38 H19        -16.5780    23.2760    24.1940 h4         1 ZLC       0.150000
     39 H4         -24.1740    10.1490    27.1620 ha         1 ZLC       0.145000
     40 H10        -19.6750    16.9100    25.7370 h1         1 ZLC       0.057700
     41 H11        -18.1390    16.6940    24.8880 h1         1 ZLC       0.057700
     42 C1         -23.2680    11.7380    29.5410 c3         1 ZLC      -0.128400
@<TRIPOS>BOND
     1     1     5 1   
     2     1     6 1   
     3     1     8 1   
     4     2    11 1   
     5     2    12 1   
     6     2    23 1   
     7     3     4 2   
     8     3    16 1   
     9     3    24 1   
    10     4     5 1   
    11     4    19 1   
    12     5    20 2   
    13     6     7 1   
    14     6    25 1   
    15     6    26 1   
    16     7    18 1   
    17     7    27 1   
    18     7    28 1   
    19     8    17 1   
    20     8    29 1   
    21     8    30 1   
    22     9    12 1   
    23     9    13 2   
    24     9    22 1   
    25    10    13 1   
    26    10    14 2   
    27    10    31 1   
    28    11    18 1   
    29    11    21 2   
    30    12    35 1   
    31    12    36 1   
    32    13    37 1   
    33    14    22 1   
    34    14    38 1   
    35    15    16 2   
    36    15    19 1   
    37    15    42 1   
    38    16    39 1   
    39    17    18 1   
    40    17    40 1   
    41    17    41 1   
    42    32    42 1   
    43    33    42 1   
    44    34    42 1   
@<TRIPOS>SUBSTRUCTURE
     1 ZLC         1 TEMP              0 ****  ****    0 ROOT
