@<TRIPOS>MOLECULE
ZLD
   44    46     1     0     0
SMALL
bcc


@<TRIPOS>ATOM
      1 C2           0.0200    -0.1680    -0.4950 ca         1 ZLD       0.094600
      2 C5           0.7160    -0.9650     0.4160 ca         1 ZLD      -0.174000
      3 C9          -4.1670     0.9480     0.2420 c3         1 ZLD       0.089000
      4 C1           0.7300     0.7680    -1.2400 ca         1 ZLD      -0.174000
      5 C3           2.1000     0.9120    -1.0730 ca         1 ZLD      -0.129000
      6 N4          -1.3680    -0.2640    -0.6450 n          1 ZLD      -0.417000
      7 C6          -2.1580     0.7680    -1.2880 c5         1 ZLD       0.067000
      8 C7          -2.1150    -1.3880    -0.4480 c          1 ZLD       0.840600
      9 C8          -3.5700     0.2770    -0.9870 c5         1 ZLD       0.106100
     10 O10         -3.3940    -1.1240    -0.7360 os         1 ZLD      -0.386900
     11 C12         -6.5920     0.6950     0.0550 c          1 ZLD       0.669100
     12 C13         -7.8110     0.0010     0.6060 c3         1 ZLD      -0.178100
     13 O14         -6.6640     1.5090    -0.8560 o          1 ZLD      -0.612100
     14 O15         -1.7510    -2.4770    -0.0840 o          1 ZLD      -0.588500
     15 C16          2.0790    -0.8180     0.5300 ca         1 ZLD       0.147900
     16 C17          2.8250     0.1210    -0.1850 ca         1 ZLD       0.070600
     17 F18          2.7230    -1.6300     1.3850 f          1 ZLD      -0.133900
     18 N19          4.2120     0.1950    -0.0130 nh         1 ZLD      -0.624000
     19 C20          4.9680     0.8010    -1.0940 c6         1 ZLD       0.148800
     20 C21          6.4470     0.5360    -0.8750 c6         1 ZLD       0.127900
     21 O22          6.8860     1.0290     0.3700 os         1 ZLD      -0.401600
     22 C23          6.1530     0.4530     1.4270 c6         1 ZLD       0.127900
     23 C24          4.6650     0.7030     1.2790 c6         1 ZLD       0.148800
     24 H5           0.2220    -1.7060     1.0260 ha         1 ZLD       0.177000
     25 H9          -3.4740     0.8760     1.0820 h1         1 ZLD       0.066200
     26 H9A         -4.2950     2.0090     0.0220 h1         1 ZLD       0.066200
     27 H1           0.2300     1.4050    -1.9570 ha         1 ZLD       0.135000
     28 H3           2.6090     1.6620    -1.6640 ha         1 ZLD       0.137000
     29 H6          -1.9580     1.7500    -0.8550 h1         1 ZLD       0.068700
     30 H6A         -1.9590     0.8170    -2.3610 h1         1 ZLD       0.068700
     31 H8          -4.2350     0.3810    -1.8420 h1         1 ZLD       0.109700
     32 HN11        -5.4150    -0.3310     1.3590 hn         1 ZLD       0.325500
     33 H13         -8.4610     0.7390     1.0780 hc         1 ZLD       0.062700
     34 H13A        -8.3730    -0.4510    -0.2100 hc         1 ZLD       0.062700
     35 H13B        -7.5820    -0.7710     1.3390 hc         1 ZLD       0.062700
     36 H20          4.6680     0.3580    -2.0460 h1         1 ZLD       0.047200
     37 H20A         4.8000     1.8870    -1.1670 h1         1 ZLD       0.047200
     38 H21          6.6350    -0.5440    -0.9520 h1         1 ZLD       0.054700
     39 H21A         7.0310     1.0360    -1.6500 h1         1 ZLD       0.054700
     40 H23          6.3340    -0.6290     1.4780 h1         1 ZLD       0.054700
     41 H23A         6.5120     0.8990     2.3560 h1         1 ZLD       0.054700
     42 H24          4.4540     1.7790     1.3720 h1         1 ZLD       0.047200
     43 H24A         4.1470     0.2000     2.0940 h1         1 ZLD       0.047200
     44 N11         -5.4250     0.3750     0.6430 ns         1 ZLD      -0.568900
@<TRIPOS>BOND
     1     1     2 ar  
     2     1     4 ar  
     3     1     6 1   
     4     2    15 ar  
     5     2    24 1   
     6     3     9 1   
     7     3    25 1   
     8     3    26 1   
     9     3    44 1   
    10     4     5 ar  
    11     4    27 1   
    12     5    16 ar  
    13     5    28 1   
    14     6     7 1   
    15     6     8 1   
    16     7     9 1   
    17     7    29 1   
    18     7    30 1   
    19     8    10 1   
    20     8    14 2   
    21     9    10 1   
    22     9    31 1   
    23    11    12 1   
    24    11    13 2   
    25    11    44 1   
    26    12    33 1   
    27    12    34 1   
    28    12    35 1   
    29    15    16 ar  
    30    15    17 1   
    31    16    18 1   
    32    18    19 1   
    33    18    23 1   
    34    19    20 1   
    35    19    36 1   
    36    19    37 1   
    37    20    21 1   
    38    20    38 1   
    39    20    39 1   
    40    21    22 1   
    41    22    23 1   
    42    22    40 1   
    43    22    41 1   
    44    23    42 1   
    45    23    43 1   
    46    32    44 1   
@<TRIPOS>SUBSTRUCTURE
     1 ZLD         1 TEMP              0 ****  ****    0 ROOT
