@<TRIPOS>MOLECULE
ZLD
   44    46     1     0     0
SMALL
No Charge or Current Charge


@<TRIPOS>ATOM
      1 C2          -0.0060     0.1110    -0.3950 ca         1 ZLD       0.002000
      2 C5           0.6770    -0.6810     0.5500 ca         1 ZLD      -0.156000
      3 C9          -4.3320     0.9370     0.3360 c3         1 ZLD       0.089000
      4 C1           0.7620     0.9100    -1.2660 ca         1 ZLD      -0.156000
      5 C3           2.1580     1.0050    -1.1240 ca         1 ZLD      -0.111000
      6 N4          -1.4100    -0.0770    -0.6670 n          1 ZLD      -0.257400
      7 C6          -2.2510     0.9980    -1.2080 c5         1 ZLD       0.067000
      8 C7          -2.1360    -1.2640    -0.4980 c          1 ZLD       0.698100
      9 C8          -3.6630     0.3970    -0.9560 c5         1 ZLD       0.129300
     10 O10         -3.4420    -1.0290    -0.8130 os         1 ZLD      -0.410100
     11 C12         -6.7790     0.4810    -0.0620 c          1 ZLD       0.602100
     12 C13         -7.9780    -0.3050     0.4500 c3         1 ZLD      -0.178100
     13 O14         -6.8400     1.2100    -1.0410 o          1 ZLD      -0.612100
     14 O15         -1.6970    -2.3530    -0.1620 o          1 ZLD      -0.513000
     15 C16          2.0710    -0.5870     0.6990 ca         1 ZLD       0.183000
     16 C17          2.8380     0.2700    -0.1320 ca         1 ZLD       0.209000
     17 F18          2.6700    -1.3600     1.6380 f          1 ZLD      -0.169000
     18 N19          4.2530     0.3830    -0.0000 nh         1 ZLD      -0.762400
     19 C20          5.1310     0.5920    -1.1980 c6         1 ZLD       0.148800
     20 C21          6.6040     0.1600    -0.9260 c6         1 ZLD       0.151100
     21 O22          7.1100     0.7890     0.2760 os         1 ZLD      -0.448000
     22 C23          6.3330     0.4490     1.4490 c6         1 ZLD       0.151100
     23 C24          4.8490     0.8930     1.2770 c6         1 ZLD       0.148800
     24 H5           0.1360    -1.3560     1.2060 ha         1 ZLD       0.159000
     25 H9          -3.6490     0.7840     1.1830 h1         1 ZLD       0.066200
     26 H9A         -4.4850     2.0190     0.2300 h1         1 ZLD       0.066200
     27 H1           0.2820     1.4730    -2.0630 ha         1 ZLD       0.117000
     28 H3           2.7110     1.6590    -1.7930 ha         1 ZLD       0.119000
     29 H6          -2.0950     1.9520    -0.6880 h1         1 ZLD       0.068700
     30 H6A         -2.0650     1.1430    -2.2810 h1         1 ZLD       0.068700
     31 H8          -4.3350     0.5810    -1.8060 h1         1 ZLD       0.109700
     32 HN11        -5.6710    -0.3180     1.4550 hn         1 ZLD       0.325500
     33 H13         -8.1440    -0.0560     1.5050 hc         1 ZLD       0.062700
     34 H13A        -8.8790    -0.1410    -0.1510 hc         1 ZLD       0.062700
     35 H13B        -7.7120    -1.3670     0.5010 hc         1 ZLD       0.062700
     36 H20          4.7520     0.0120    -2.0530 h1         1 ZLD       0.047200
     37 H20A         5.1230     1.6520    -1.4890 h1         1 ZLD       0.047200
     38 H21          6.6570    -0.9320    -0.8120 h1         1 ZLD       0.054700
     39 H21A         7.2390     0.4440    -1.7760 h1         1 ZLD       0.054700
     40 H23          6.3800    -0.6380     1.6110 h1         1 ZLD       0.054700
     41 H23A         6.7700     0.9430     2.3280 h1         1 ZLD       0.054700
     42 H24          4.8060     1.9920     1.2940 h1         1 ZLD       0.047200
     43 H24A         4.2770     0.5360     2.1460 h1         1 ZLD       0.047200
     44 N11         -5.6230     0.3130     0.6630 ns         1 ZLD      -0.501900
@<TRIPOS>BOND
     1     1     2 ar  
     2     1     4 ar  
     3     1     6 1   
     4     2    15 ar  
     5     2    24 1   
     6     3     9 1   
     7     3    25 1   
     8     3    26 1   
     9     3    44 1   
    10     4     5 ar  
    11     4    27 1   
    12     5    16 ar  
    13     5    28 1   
    14     6     7 1   
    15     6     8 1   
    16     7     9 1   
    17     7    29 1   
    18     7    30 1   
    19     8    10 1   
    20     8    14 2   
    21     9    10 1   
    22     9    31 1   
    23    11    12 1   
    24    11    13 2   
    25    11    44 1   
    26    12    33 1   
    27    12    34 1   
    28    12    35 1   
    29    15    16 ar  
    30    15    17 1   
    31    16    18 1   
    32    18    19 1   
    33    18    23 1   
    34    19    20 1   
    35    19    36 1   
    36    19    37 1   
    37    20    21 1   
    38    20    38 1   
    39    20    39 1   
    40    21    22 1   
    41    22    23 1   
    42    22    40 1   
    43    22    41 1   
    44    23    42 1   
    45    23    43 1   
    46    32    44 1   
@<TRIPOS>SUBSTRUCTURE
     1 ZLD         1 TEMP              0 ****  ****    0 ROOT
