@<TRIPOS>MOLECULE
ZLE
   33    34     1     0     0
SMALL
No Charge or Current Charge


@<TRIPOS>ATOM
      1 N1           3.5440     9.9830    43.0800 ns         1 ZLE      -0.148000
      2 N3           1.9850     8.0210    36.0220 nv         1 ZLE      -1.051900
      3 C4           2.2570     9.8580    42.4860 ca         1 ZLE      -0.023000
      4 C5           1.1440     9.8860    43.3440 ca         1 ZLE      -0.161000
      5 C6          -0.1570     9.7720    42.8320 ca         1 ZLE      -0.084000
      6 C7          -0.3570     9.6280    41.4510 ca         1 ZLE      -0.119000
      7 C8           0.7390     9.5960    40.5540 cp         1 ZLE      -0.016000
      8 C10         -0.6130     9.9740    38.4250 ca         1 ZLE      -0.209000
      9 C13          1.4430     8.7570    38.2510 ca         1 ZLE      -0.210000
     10 C1           6.7010     8.8420    43.8900 c3         1 ZLE      -0.082100
     11 C2           5.9410    10.1550    43.5930 c3         1 ZLE      -0.155400
     12 C3           4.8300     9.9500    42.5540 c          1 ZLE       0.603100
     13 O1           5.0890     9.7980    41.3650 o          1 ZLE      -0.588100
     14 C9           0.5240     9.4420    39.0790 cp         1 ZLE       0.039000
     15 C11         -0.7740     9.8080    37.0390 ca         1 ZLE       0.374900
     16 N2           0.1180     9.1480    36.2680 nb         1 ZLE      -0.737000
     17 C12          1.1790     8.6480    36.8840 ca         1 ZLE       0.583900
     18 C14          2.0450     9.7140    41.0960 ca         1 ZLE      -0.119000
     19 H1           3.5150    10.1200    44.0820 hn         1 ZLE       0.149000
     20 H2           1.7990     8.2130    35.0450 hn         1 ZLE       0.468500
     21 H3           2.9570     7.8990    36.2840 hn         1 ZLE       0.468500
     22 H4           1.2860     9.9970    44.4170 ha         1 ZLE       0.109000
     23 H5          -1.0110     9.7920    43.5060 ha         1 ZLE       0.115000
     24 H6          -1.3720     9.5270    41.0750 ha         1 ZLE       0.120000
     25 H7          -1.3650    10.5280    38.9780 ha         1 ZLE       0.123000
     26 H8           2.3360     8.3010    38.6650 ha         1 ZLE       0.129000
     27 H9           7.4900     9.0150    44.6320 hc         1 ZLE       0.045367
     28 H10          6.0190     8.0790    44.2850 hc         1 ZLE       0.045367
     29 H11          7.1700     8.4490    42.9790 hc         1 ZLE       0.045367
     30 H12          6.6590    10.8850    43.2020 hc         1 ZLE       0.059200
     31 H13          5.5160    10.5250    44.5340 hc         1 ZLE       0.059200
     32 H14         -1.6450    10.2200    36.5290 h4         1 ZLE       0.016100
     33 H15          2.8850     9.7100    40.4110 ha         1 ZLE       0.151000
@<TRIPOS>BOND
     1     1     3 1   
     2     1    12 1   
     3     1    19 1   
     4     2    17 1   
     5     2    20 1   
     6     2    21 1   
     7     3     4 ar  
     8     3    18 ar  
     9     4     5 ar  
    10     4    22 1   
    11     5     6 ar  
    12     5    23 1   
    13     6     7 ar  
    14     6    24 1   
    15     7    14 1   
    16     7    18 ar  
    17     8    14 ar  
    18     8    15 ar  
    19     8    25 1   
    20     9    14 ar  
    21     9    17 ar  
    22     9    26 1   
    23    10    11 1   
    24    10    27 1   
    25    10    28 1   
    26    10    29 1   
    27    11    12 1   
    28    11    30 1   
    29    11    31 1   
    30    12    13 2   
    31    15    16 ar  
    32    15    32 1   
    33    16    17 ar  
    34    18    33 1   
@<TRIPOS>SUBSTRUCTURE
     1 ZLE         1 TEMP              0 ****  ****    0 ROOT
