@<TRIPOS>MOLECULE
ZLE
   33    34     1     0     0
SMALL
abcg2


@<TRIPOS>ATOM
      1 N1           3.4380     9.9700    43.1210 ns         1 ZLE      -0.148000
      2 N3           2.1000     7.8800    36.2030 nv         1 ZLE      -1.051900
      3 C4           2.1800     9.8460    42.5070 ca         1 ZLE      -0.023000
      4 C5           1.0590     9.8800    43.3440 ca         1 ZLE      -0.161000
      5 C6          -0.2140     9.7850    42.8040 ca         1 ZLE      -0.084000
      6 C7          -0.3920     9.6580    41.4320 ca         1 ZLE      -0.119000
      7 C8           0.7200     9.6190    40.5860 cp         1 ZLE      -0.016000
      8 C10         -0.5420    10.0720    38.4610 ca         1 ZLE      -0.209000
      9 C13          1.4490     8.7550    38.3580 ca         1 ZLE      -0.210000
     10 C1           6.7840     8.8940    43.5890 c3         1 ZLE      -0.082100
     11 C2           5.8210    10.0820    43.5620 c3         1 ZLE      -0.155400
     12 C3           4.6850     9.8680    42.5800 c          1 ZLE       0.603100
     13 O1           4.8960     9.6240    41.3950 o          1 ZLE      -0.588100
     14 C9           0.5450     9.4780    39.1230 cp         1 ZLE       0.039000
     15 C11         -0.6490     9.9130    37.0930 ca         1 ZLE       0.374900
     16 N2           0.2170     9.2190    36.3450 nb         1 ZLE      -0.737000
     17 C12          1.2520     8.6430    36.9710 ca         1 ZLE       0.583900
     18 C14          2.0050     9.7130    41.1290 ca         1 ZLE      -0.119000
     19 H1           3.4060    10.1480    44.1140 hn         1 ZLE       0.149000
     20 H2           2.0670     8.0620    35.2110 hn         1 ZLE       0.468500
     21 H3           3.0270     7.7180    36.5660 hn         1 ZLE       0.468500
     22 H4           1.1940     9.9840    44.4140 ha         1 ZLE       0.109000
     23 H5          -1.0740     9.8060    43.4610 ha         1 ZLE       0.115000
     24 H6          -1.3890     9.5690    41.0230 ha         1 ZLE       0.120000
     25 H7          -1.2700    10.6650    38.9970 ha         1 ZLE       0.123000
     26 H8           2.2940     8.2580    38.8160 ha         1 ZLE       0.129000
     27 H9           7.6170     9.1000    44.2610 hc         1 ZLE       0.045367
     28 H10          6.2790     7.9910    43.9400 hc         1 ZLE       0.045367
     29 H11          7.1860     8.6980    42.5950 hc         1 ZLE       0.045367
     30 H12          6.3530    10.9790    43.2310 hc         1 ZLE       0.059200
     31 H13          5.4370    10.2850    44.5620 hc         1 ZLE       0.059200
     32 H14         -1.4730    10.3730    36.5570 h4         1 ZLE       0.016100
     33 H15          2.8680     9.7050    40.4870 ha         1 ZLE       0.151000
@<TRIPOS>BOND
     1     1     3 1   
     2     1    12 1   
     3     1    19 1   
     4     2    17 1   
     5     2    20 1   
     6     2    21 1   
     7     3     4 ar  
     8     3    18 ar  
     9     4     5 ar  
    10     4    22 1   
    11     5     6 ar  
    12     5    23 1   
    13     6     7 ar  
    14     6    24 1   
    15     7    14 1   
    16     7    18 ar  
    17     8    14 ar  
    18     8    15 ar  
    19     8    25 1   
    20     9    14 ar  
    21     9    17 ar  
    22     9    26 1   
    23    10    11 1   
    24    10    27 1   
    25    10    28 1   
    26    10    29 1   
    27    11    12 1   
    28    11    30 1   
    29    11    31 1   
    30    12    13 2   
    31    15    16 ar  
    32    15    32 1   
    33    16    17 ar  
    34    18    33 1   
@<TRIPOS>SUBSTRUCTURE
     1 ZLE         1 TEMP              0 ****  ****    0 ROOT
