@<TRIPOS>MOLECULE
ZLG
   79    85     1     0     0
SMALL
No Charge or Current Charge


@<TRIPOS>ATOM
      1 CAA         -4.9460     8.6050    10.7500 ca         1 ZLG      -0.141000
      2 CAB         -4.1830     7.6650    11.4570 ca         1 ZLG       0.188000
      3 CAC         -4.4610     7.3990    12.8050 ca         1 ZLG      -0.138000
      4 CAD         -5.5080     8.0810    13.4520 ca         1 ZLG      -0.053000
      5 CAE         -6.2910     9.0270    12.7620 ca         1 ZLG       0.254000
      6 CAF         -5.9980     9.2830    11.3980 ca         1 ZLG      -0.042000
      7 CAG         -6.7740    10.2180    10.6940 ca         1 ZLG      -0.070000
      8 CAI         -8.0640    10.5690    12.7260 ca         1 ZLG       0.301500
      9 CAJ         -7.8210    10.8650    11.3690 ca         1 ZLG      -0.111000
     10 CAK         -9.2480    11.2240    13.4480 c          1 ZLG       0.500600
     11 CAN        -10.6680    10.9550    15.5140 c3         1 ZLG       0.084700
     12 CAQ        -11.5690     9.7850    15.2060 cc         1 ZLG       0.143300
     13 CAR        -11.1780     8.5210    14.8830 cd         1 ZLG      -0.175000
     14 CAT        -12.3290     6.6340    14.0810 ca         1 ZLG      -0.029200
     15 CAU        -12.1990     6.4880    12.6760 ca         1 ZLG      -0.013800
     16 CAV        -12.3530     5.4880    14.9150 ca         1 ZLG      -0.013800
     17 CAW        -12.2330     4.2110    14.3370 ca         1 ZLG      -0.110000
     18 CAX        -12.0820     4.0610    12.9500 ca         1 ZLG      -0.040300
     19 CAY        -12.0890     5.1980    12.1260 ca         1 ZLG      -0.110000
     20 CAZ        -12.1670     7.6910    11.7620 cx         1 ZLG      -0.095900
     21 CBA        -11.3860     7.7290    10.4650 cx         1 ZLG      -0.122400
     22 CBB        -10.9310     8.5550    11.6400 cx         1 ZLG      -0.122400
     23 CBC        -12.4960     5.6150    16.4120 cx         1 ZLG      -0.095900
     24 CBD        -11.3760     6.1570    17.2720 cx         1 ZLG      -0.122400
     25 CBE        -11.7730     4.7070    17.3830 cx         1 ZLG      -0.122400
     26 CBF        -11.8060     2.6890    12.3510 c3         1 ZLG      -0.142100
     27 CBG        -10.3110     2.4030    12.5080 c          1 ZLG       0.604100
     28 CBJ         -8.0400     3.0380    11.4790 c6         1 ZLG      -0.004600
     29 CBK         -8.1000     5.5150    12.3100 c6         1 ZLG      -0.077900
     30 CBL         -7.5460     4.0830    12.5450 c6         1 ZLG      -0.076400
     31 CBM         -7.6220     3.6110    10.0820 c6         1 ZLG      -0.076400
     32 CBN         -8.1610     5.0430     9.8090 c6         1 ZLG      -0.077900
     33 CBO         -7.7110     6.0310    10.9080 c6         1 ZLG      -0.069400
     34 CBP         -7.3390     1.6230    11.6480 c          1 ZLG       0.735000
     35 FBS         -3.1790     7.0100    10.8350 f          1 ZLG      -0.172000
     36 NAH         -7.2990     9.6610    13.4060 nb         1 ZLG      -0.668000
     37 NAL         -9.4040    10.8550    14.7710 ns         1 ZLG      -0.482900
     38 NAO        -13.4440     8.7470    14.7820 nd         1 ZLG      -0.195800
     39 NAP        -12.9390     9.9010    15.1610 nc         1 ZLG      -0.371000
     40 NAS        -12.3750     7.9080    14.6510 na         1 ZLG       0.235000
     41 NBH         -9.5280     2.9560    11.5150 ns         1 ZLG      -0.459900
     42 OAM        -10.0410    11.9850    12.9010 o          1 ZLG      -0.594100
     43 OBI         -9.8530     1.8250    13.4840 o          1 ZLG      -0.594100
     44 OBQ         -6.7530     1.3820    12.6970 o          1 ZLG      -0.712500
     45 OBR         -7.7320     0.7170    10.9200 o          1 ZLG      -0.712500
     46 H1          -4.7230     8.7990     9.7040 ha         1 ZLG       0.138000
     47 H2          -3.8670     6.6670    13.3470 ha         1 ZLG       0.136000
     48 H3          -5.7220     7.8710    14.4960 ha         1 ZLG       0.133000
     49 H4          -6.5780    10.4350     9.6460 ha         1 ZLG       0.127000
     50 H5          -8.4470    11.5820    10.8440 ha         1 ZLG       0.148000
     51 H6         -11.1750    11.8940    15.2560 h1         1 ZLG       0.073700
     52 H7         -10.4500    10.9690    16.5890 h1         1 ZLG       0.073700
     53 H8         -10.2090     8.0520    14.7760 h4         1 ZLG       0.181000
     54 H9         -12.2300     3.3270    14.9710 ha         1 ZLG       0.129000
     55 H10        -11.9790     5.0780    11.0520 ha         1 ZLG       0.129000
     56 H11        -13.1230     8.2120    11.7560 hc         1 ZLG       0.092200
     57 H12        -11.8310     8.2510     9.6210 hc         1 ZLG       0.075700
     58 H13        -10.7690     6.8770    10.1940 hc         1 ZLG       0.075700
     59 H14        -10.0300     8.2350    12.1570 hc         1 ZLG       0.075700
     60 H15        -11.0730     9.6310    11.5900 hc         1 ZLG       0.075700
     61 H16        -13.5060     5.9090    16.6930 hc         1 ZLG       0.092200
     62 H17        -10.4250     6.3800    16.7940 hc         1 ZLG       0.075700
     63 H18        -11.6430     6.8240    18.0880 hc         1 ZLG       0.075700
     64 H19        -12.3070     4.3940    18.2770 hc         1 ZLG       0.075700
     65 H20        -11.0760     3.9700    16.9900 hc         1 ZLG       0.075700
     66 H21        -12.0670     2.7110    11.2870 hc         1 ZLG       0.071200
     67 H22        -12.3880     1.9200    12.8710 hc         1 ZLG       0.071200
     68 H23         -7.7070     6.1950    13.0770 hc         1 ZLG       0.018700
     69 H24         -9.1920     5.5250    12.4230 hc         1 ZLG       0.018700
     70 H25         -7.8290     3.7520    13.5540 hc         1 ZLG       0.056950
     71 H26         -6.4470     4.1220    12.5410 hc         1 ZLG       0.056950
     72 H27         -7.9690     2.9400     9.2850 hc         1 ZLG       0.056950
     73 H28         -6.5250     3.6210    10.0060 hc         1 ZLG       0.056950
     74 H29         -7.8020     5.3930     8.8320 hc         1 ZLG       0.018700
     75 H30         -9.2570     5.0290     9.7450 hc         1 ZLG       0.018700
     76 H31         -6.6230     6.1630    10.8550 hc         1 ZLG       0.018700
     77 H32         -8.1560     7.0200    10.7330 hc         1 ZLG       0.018700
     78 H33         -8.6810    10.2360    15.1270 hn         1 ZLG       0.335500
     79 H34        -10.0310     3.4250    10.7750 hn         1 ZLG       0.286500
@<TRIPOS>BOND
     1     1     2 ar  
     2     1     6 ar  
     3     1    46 1   
     4     2     3 ar  
     5     2    35 1   
     6     3     4 ar  
     7     3    47 1   
     8     4     5 ar  
     9     4    48 1   
    10     5     6 ar  
    11     5    36 ar  
    12     6     7 ar  
    13     7     9 ar  
    14     7    49 1   
    15     8     9 ar  
    16     8    10 1   
    17     8    36 ar  
    18     9    50 1   
    19    10    37 1   
    20    10    42 2   
    21    11    12 1   
    22    11    37 1   
    23    11    51 1   
    24    11    52 1   
    25    12    13 2   
    26    12    39 1   
    27    13    40 1   
    28    13    53 1   
    29    14    15 ar  
    30    14    16 ar  
    31    14    40 1   
    32    15    19 ar  
    33    15    20 1   
    34    16    17 ar  
    35    16    23 1   
    36    17    18 ar  
    37    17    54 1   
    38    18    19 ar  
    39    18    26 1   
    40    19    55 1   
    41    20    21 1   
    42    20    22 1   
    43    20    56 1   
    44    21    22 1   
    45    21    57 1   
    46    21    58 1   
    47    22    59 1   
    48    22    60 1   
    49    23    24 1   
    50    23    25 1   
    51    23    61 1   
    52    24    25 1   
    53    24    62 1   
    54    24    63 1   
    55    25    64 1   
    56    25    65 1   
    57    26    27 1   
    58    26    66 1   
    59    26    67 1   
    60    27    41 1   
    61    27    43 2   
    62    28    30 1   
    63    28    31 1   
    64    28    34 1   
    65    28    41 1   
    66    29    30 1   
    67    29    33 1   
    68    29    68 1   
    69    29    69 1   
    70    30    70 1   
    71    30    71 1   
    72    31    32 1   
    73    31    72 1   
    74    31    73 1   
    75    32    33 1   
    76    32    74 1   
    77    32    75 1   
    78    33    76 1   
    79    33    77 1   
    80    34    44 1   
    81    34    45 1   
    82    37    78 1   
    83    38    39 2   
    84    38    40 1   
    85    41    79 1   
@<TRIPOS>SUBSTRUCTURE
     1 ZLG         1 TEMP              0 ****  ****    0 ROOT
