@<TRIPOS>MOLECULE
ZLG
   79    85     1     0     0
SMALL
abcg2


@<TRIPOS>ATOM
      1 CAA         -3.9520     7.9570    13.1800 ca         1 ZLG      -0.141000
      2 CAB         -3.7610     7.2080    14.3020 ca         1 ZLG       0.188000
      3 CAC         -4.6700     7.1960    15.3730 ca         1 ZLG      -0.138000
      4 CAD         -5.7950     7.9670    15.3000 ca         1 ZLG      -0.053000
      5 CAE         -6.0430     8.7650    14.1590 ca         1 ZLG       0.254000
      6 CAF         -5.1120     8.7550    13.0910 ca         1 ZLG      -0.042000
      7 CAG         -5.4040     9.5550    11.9660 ca         1 ZLG      -0.070000
      8 CAI         -7.4200    10.2210    13.0530 ca         1 ZLG       0.301500
      9 CAJ         -6.5580    10.2840    11.9380 ca         1 ZLG      -0.111000
     10 CAK         -8.7360    10.9540    13.0140 c          1 ZLG       0.500600
     11 CAN        -10.8180    11.2110    14.2890 c3         1 ZLG       0.084700
     12 CAQ        -11.5770     9.9230    14.2960 cc         1 ZLG       0.143300
     13 CAR        -11.2500     8.7540    13.6620 cd         1 ZLG      -0.175000
     14 CAT        -12.2560     6.5150    13.7080 ca         1 ZLG      -0.029200
     15 CAU        -12.8760     6.1190    12.5280 ca         1 ZLG      -0.013800
     16 CAV        -11.5660     5.6280    14.5420 ca         1 ZLG      -0.013800
     17 CAW        -11.4700     4.3080    14.1380 ca         1 ZLG      -0.110000
     18 CAX        -12.0150     3.8840    12.9270 ca         1 ZLG      -0.040300
     19 CAY        -12.7410     4.7790    12.1570 ca         1 ZLG      -0.110000
     20 CAZ        -13.5870     7.1030    11.6790 cx         1 ZLG      -0.095900
     21 CBA        -14.5850     6.6800    10.6390 cx         1 ZLG      -0.122400
     22 CBB        -13.2590     7.2050    10.2100 cx         1 ZLG      -0.122400
     23 CBC        -10.9460     6.1250    15.8000 cx         1 ZLG      -0.095900
     24 CBD         -9.5970     6.7900    15.7760 cx         1 ZLG      -0.122400
     25 CBE         -9.7620     5.4500    16.4180 cx         1 ZLG      -0.122400
     26 CBF        -11.6940     2.5060    12.4230 c3         1 ZLG      -0.142100
     27 CBG        -10.2450     2.4020    11.9330 c          1 ZLG       0.604100
     28 CBJ         -8.4440     3.6670    10.7730 c6         1 ZLG      -0.004600
     29 CBK         -7.8220     5.1370    12.7550 c6         1 ZLG      -0.077900
     30 CBL         -7.4780     3.8920    11.9450 c6         1 ZLG      -0.076400
     31 CBM         -8.4690     4.9380     9.9050 c6         1 ZLG      -0.076400
     32 CBN         -8.7880     6.2090    10.6900 c6         1 ZLG      -0.077900
     33 CBO         -7.8510     6.3850    11.8780 c6         1 ZLG      -0.069400
     34 CBP         -8.0280     2.4810     9.8440 c          1 ZLG       0.735000
     35 FBS         -2.6670     6.4460    14.4070 f          1 ZLG      -0.172000
     36 NAH         -7.1700     9.5020    14.1140 nb         1 ZLG      -0.668000
     37 NAL         -9.4040    10.9400    14.1780 ns         1 ZLG      -0.482900
     38 NAO        -13.0800     8.4800    14.8510 nd         1 ZLG      -0.195800
     39 NAP        -12.7040     9.7030    15.0080 nc         1 ZLG      -0.371000
     40 NAS        -12.2110     7.8960    14.0390 na         1 ZLG       0.235000
     41 NBH         -9.8010     3.4740    11.2680 ns         1 ZLG      -0.459900
     42 OAM         -9.1320    11.4790    11.9860 o          1 ZLG      -0.594100
     43 OBI         -9.5780     1.4000    12.1450 o          1 ZLG      -0.594100
     44 OBQ         -6.8580     2.0690     9.9490 o          1 ZLG      -0.712500
     45 OBR         -8.8880     2.0960     9.0310 o          1 ZLG      -0.712500
     46 H1          -3.2340     7.9430    12.3700 ha         1 ZLG       0.138000
     47 H2          -4.4700     6.5800    16.2400 ha         1 ZLG       0.136000
     48 H3          -6.5140     7.9760    16.1100 ha         1 ZLG       0.133000
     49 H4          -4.7140     9.5790    11.1320 ha         1 ZLG       0.127000
     50 H5          -6.8130    10.8960    11.0850 ha         1 ZLG       0.148000
     51 H6         -11.1200    11.8500    13.4590 h1         1 ZLG       0.073700
     52 H7         -11.0190    11.7640    15.2070 h1         1 ZLG       0.073700
     53 H8         -10.4380     8.4620    13.0160 h4         1 ZLG       0.181000
     54 H9         -10.9290     3.5990    14.7520 ha         1 ZLG       0.129000
     55 H10        -13.1790     4.4320    11.2280 ha         1 ZLG       0.129000
     56 H11        -13.8140     8.0440    12.1630 hc         1 ZLG       0.092200
     57 H12        -15.4530     7.3140    10.5160 hc         1 ZLG       0.075700
     58 H13        -14.7900     5.6250    10.5110 hc         1 ZLG       0.075700
     59 H14        -12.5350     6.5000     9.8180 hc         1 ZLG       0.075700
     60 H15        -13.2020     8.1950     9.7770 hc         1 ZLG       0.075700
     61 H16        -11.6540     6.5590    16.5000 hc         1 ZLG       0.092200
     62 H17         -9.0690     6.8310    14.8310 hc         1 ZLG       0.075700
     63 H18         -9.4560     7.6610    16.4030 hc         1 ZLG       0.075700
     64 H19         -9.7320     5.3850    17.4980 hc         1 ZLG       0.075700
     65 H20         -9.3290     4.5970    15.9120 hc         1 ZLG       0.075700
     66 H21        -12.3600     2.2280    11.6020 hc         1 ZLG       0.071200
     67 H22        -11.8250     1.7620    13.2090 hc         1 ZLG       0.071200
     68 H23         -7.0920     5.2650    13.5590 hc         1 ZLG       0.018700
     69 H24         -8.7940     5.0100    13.2450 hc         1 ZLG       0.018700
     70 H25         -7.4600     3.0110    12.5890 hc         1 ZLG       0.056950
     71 H26         -6.4690     3.9960    11.5410 hc         1 ZLG       0.056950
     72 H27         -9.1840     4.8060     9.0890 hc         1 ZLG       0.056950
     73 H28         -7.4820     5.0470     9.4450 hc         1 ZLG       0.056950
     74 H29         -8.7160     7.0710    10.0220 hc         1 ZLG       0.018700
     75 H30         -9.8260     6.2010    11.0420 hc         1 ZLG       0.018700
     76 H31         -6.8380     6.5890    11.5110 hc         1 ZLG       0.018700
     77 H32         -8.1480     7.2590    12.4640 hc         1 ZLG       0.018700
     78 H33         -8.9790    10.4050    14.9230 hn         1 ZLG       0.335500
     79 H34        -10.4410     4.2440    11.1600 hn         1 ZLG       0.286500
@<TRIPOS>BOND
     1     1     2 ar  
     2     1     6 ar  
     3     1    46 1   
     4     2     3 ar  
     5     2    35 1   
     6     3     4 ar  
     7     3    47 1   
     8     4     5 ar  
     9     4    48 1   
    10     5     6 ar  
    11     5    36 ar  
    12     6     7 ar  
    13     7     9 ar  
    14     7    49 1   
    15     8     9 ar  
    16     8    10 1   
    17     8    36 ar  
    18     9    50 1   
    19    10    37 1   
    20    10    42 2   
    21    11    12 1   
    22    11    37 1   
    23    11    51 1   
    24    11    52 1   
    25    12    13 2   
    26    12    39 1   
    27    13    40 1   
    28    13    53 1   
    29    14    15 ar  
    30    14    16 ar  
    31    14    40 1   
    32    15    19 ar  
    33    15    20 1   
    34    16    17 ar  
    35    16    23 1   
    36    17    18 ar  
    37    17    54 1   
    38    18    19 ar  
    39    18    26 1   
    40    19    55 1   
    41    20    21 1   
    42    20    22 1   
    43    20    56 1   
    44    21    22 1   
    45    21    57 1   
    46    21    58 1   
    47    22    59 1   
    48    22    60 1   
    49    23    24 1   
    50    23    25 1   
    51    23    61 1   
    52    24    25 1   
    53    24    62 1   
    54    24    63 1   
    55    25    64 1   
    56    25    65 1   
    57    26    27 1   
    58    26    66 1   
    59    26    67 1   
    60    27    41 1   
    61    27    43 2   
    62    28    30 1   
    63    28    31 1   
    64    28    34 1   
    65    28    41 1   
    66    29    30 1   
    67    29    33 1   
    68    29    68 1   
    69    29    69 1   
    70    30    70 1   
    71    30    71 1   
    72    31    32 1   
    73    31    72 1   
    74    31    73 1   
    75    32    33 1   
    76    32    74 1   
    77    32    75 1   
    78    33    76 1   
    79    33    77 1   
    80    34    44 1   
    81    34    45 1   
    82    37    78 1   
    83    38    39 2   
    84    38    40 1   
    85    41    79 1   
@<TRIPOS>SUBSTRUCTURE
     1 ZLG         1 TEMP              0 ****  ****    0 ROOT
