@<TRIPOS>MOLECULE
ZLH
   42    44     1     0     0
SMALL
abcg2


@<TRIPOS>ATOM
      1 N1         -20.0030    15.7000    27.6410 n          1 ZLH      -0.420800
      2 C4         -18.9700    16.4210    26.9000 c6         1 ZLH       0.081000
      3 C5         -20.7710    16.2980    28.6200 c          1 ZLH       0.648100
      4 C6         -21.3400    18.3770    29.8230 c3         1 ZLH       0.137000
      5 C7         -20.5080    18.5960    31.0640 cx         1 ZLH      -0.167700
      6 C8         -21.1970    18.7730    32.3880 cx         1 ZLH      -0.122900
      7 C10        -17.3990    13.6290    25.2750 c          1 ZLH       0.545600
      8 C13        -14.1590    14.9450    24.0910 cc         1 ZLH      -0.193000
      9 O2         -17.4020    12.3930    25.2080 o          1 ZLH      -0.594100
     10 C11        -16.1640    14.3380    24.8840 cd         1 ZLH       0.063500
     11 O1         -15.8250    15.5410    25.4500 os         1 ZLH      -0.253000
     12 C14        -14.6070    15.8900    24.9580 cd         1 ZLH       0.142900
     13 C12        -15.1640    13.9340    24.0500 cc         1 ZLH      -0.104000
     14 N          -18.4680    14.3350    25.7080 n          1 ZLH      -0.407800
     15 C2         -19.6020    13.6620    26.3280 c6         1 ZLH       0.089000
     16 C3         -18.7140    15.7620    25.5500 c6         1 ZLH       0.103000
     17 C1         -19.8520    14.2360    27.7210 c6         1 ZLH       0.096700
     18 C          -18.7620    13.8350    28.7160 c3         1 ZLH      -0.114100
     19 O          -21.5750    15.6410    29.2930 o          1 ZLH      -0.645100
     20 N2         -20.6370    17.6460    28.7760 ns         1 ZLH      -0.514900
     21 C9         -20.4090    17.5180    32.1060 cx         1 ZLH      -0.122900
     22 H9         -18.0350    16.4760    27.4680 h1         1 ZLH       0.046200
     23 H8         -19.3070    17.4340    26.6940 h1         1 ZLH       0.046200
     24 H12        -21.6490    19.3400    29.4100 h1         1 ZLH       0.063700
     25 H11        -22.2390    17.8160    30.0690 h1         1 ZLH       0.063700
     26 H13        -19.6160    19.1930    30.9050 hc         1 ZLH       0.070700
     27 H14        -20.7870    19.4910    33.0860 hc         1 ZLH       0.075950
     28 H15        -22.2770    18.6950    32.4030 hc         1 ZLH       0.075950
     29 H19        -13.2280    14.9630    23.5500 ha         1 ZLH       0.148000
     30 H20        -14.1990    16.8170    25.3230 h4         1 ZLH       0.054100
     31 H18        -15.1530    13.0230    23.4760 ha         1 ZLH       0.158000
     32 H5         -19.3900    12.5990    26.3940 h1         1 ZLH       0.072200
     33 H4         -20.4860    13.8080    25.7010 h1         1 ZLH       0.072200
     34 H7         -17.8860    16.2500    25.0540 h1         1 ZLH       0.062200
     35 H6         -19.6050    15.8740    24.9230 h1         1 ZLH       0.062200
     36 H3         -20.8070    13.8470    28.0650 h1         1 ZLH       0.094700
     37 H          -18.9750    14.2580    29.6980 hc         1 ZLH       0.045033
     38 H1         -18.7210    12.7480    28.8100 hc         1 ZLH       0.045033
     39 H2         -17.7790    14.1850    28.3950 hc         1 ZLH       0.045033
     40 H10        -19.8440    18.1110    28.3710 hn         1 ZLH       0.302500
     41 H16        -19.4630    17.3850    32.6150 hc         1 ZLH       0.075950
     42 H17        -20.9620    16.6050    31.9290 hc         1 ZLH       0.075950
@<TRIPOS>BOND
     1     1     2 1   
     2     1     3 1   
     3     1    17 1   
     4     2    16 1   
     5     2    22 1   
     6     2    23 1   
     7     3    19 2   
     8     3    20 1   
     9     4     5 1   
    10     4    20 1   
    11     4    24 1   
    12     4    25 1   
    13     5     6 1   
    14     5    21 1   
    15     5    26 1   
    16     6    21 1   
    17     6    27 1   
    18     6    28 1   
    19     7     9 2   
    20     7    10 1   
    21     7    14 1   
    22     8    12 2   
    23     8    13 1   
    24     8    29 1   
    25    10    11 1   
    26    10    13 2   
    27    11    12 1   
    28    12    30 1   
    29    13    31 1   
    30    14    15 1   
    31    14    16 1   
    32    15    17 1   
    33    15    32 1   
    34    15    33 1   
    35    16    34 1   
    36    16    35 1   
    37    17    18 1   
    38    17    36 1   
    39    18    37 1   
    40    18    38 1   
    41    18    39 1   
    42    20    40 1   
    43    21    41 1   
    44    21    42 1   
@<TRIPOS>SUBSTRUCTURE
     1 ZLH         1 TEMP              0 ****  ****    0 ROOT
