@<TRIPOS>MOLECULE
ZLH
   42    44     1     0     0
SMALL
No Charge or Current Charge


@<TRIPOS>ATOM
      1 N1         -19.9260    15.6420    27.9100 n          1 ZLH      -0.420800
      2 C4         -18.7990    16.4150    27.3050 c6         1 ZLH       0.081000
      3 C5         -20.8650    16.2130    28.7940 c          1 ZLH       0.648100
      4 C6         -21.6310    18.3600    29.8620 c3         1 ZLH       0.137000
      5 C7         -20.8460    18.7660    31.1020 cx         1 ZLH      -0.167700
      6 C8         -21.5520    19.0460    32.4090 cx         1 ZLH      -0.122900
      7 C10        -17.3720    13.7520    24.8670 c          1 ZLH       0.545600
      8 C13        -14.0740    14.6740    23.5050 cc         1 ZLH      -0.193000
      9 O2         -17.7780    12.7220    24.3370 o          1 ZLH      -0.594100
     10 C11        -16.0410    14.3490    24.4950 cd         1 ZLH       0.063500
     11 O1         -15.4140    15.3610    25.1990 os         1 ZLH      -0.253000
     12 C14        -14.2140    15.5460    24.5480 cd         1 ZLH       0.142900
     13 C12        -15.2450    13.8950    23.4750 cc         1 ZLH      -0.104000
     14 N          -18.1390    14.3840    25.8840 n          1 ZLH      -0.407800
     15 C2         -19.3430    13.6850    26.4120 c6         1 ZLH       0.089000
     16 C3         -18.2970    15.8680    25.9430 c6         1 ZLH       0.103000
     17 C1         -19.7800    14.1620    27.8230 c6         1 ZLH       0.096700
     18 C          -18.7840    13.6390    28.8950 c3         1 ZLH      -0.114100
     19 O          -21.7050    15.5410    29.3730 o          1 ZLH      -0.645100
     20 N2         -20.7850    17.5740    28.9650 ns         1 ZLH      -0.514900
     21 C9         -20.6880    17.8140    32.2660 cx         1 ZLH      -0.122900
     22 H9         -17.9600    16.4110    28.0150 h1         1 ZLH       0.046200
     23 H8         -19.0850    17.4630    27.1480 h1         1 ZLH       0.046200
     24 H12        -21.9670    19.2610    29.3310 h1         1 ZLH       0.063700
     25 H11        -22.5220    17.7850    30.1450 h1         1 ZLH       0.063700
     26 H13        -19.9910    19.3950    30.8660 hc         1 ZLH       0.070700
     27 H14        -21.1770    19.8600    33.0240 hc         1 ZLH       0.075950
     28 H15        -22.6300    18.9040    32.4520 hc         1 ZLH       0.075950
     29 H19        -13.2280    14.5870    22.8300 ha         1 ZLH       0.148000
     30 H20        -13.5510    16.3140    24.9250 h4         1 ZLH       0.054100
     31 H18        -15.4640    13.0920    22.7760 ha         1 ZLH       0.158000
     32 H5         -19.1650    12.6010    26.4460 h1         1 ZLH       0.072200
     33 H4         -20.1760    13.8490    25.7120 h1         1 ZLH       0.072200
     34 H7         -17.3800    16.4030    25.6820 h1         1 ZLH       0.062200
     35 H6         -19.0350    16.1490    25.1790 h1         1 ZLH       0.062200
     36 H3         -20.7530    13.6920    28.0290 h1         1 ZLH       0.094700
     37 H          -19.1010    13.9350    29.9020 hc         1 ZLH       0.045033
     38 H1         -18.7230    12.5440    28.8770 hc         1 ZLH       0.045033
     39 H2         -17.7730    14.0310    28.7350 hc         1 ZLH       0.045033
     40 H10        -20.0580    18.0530    28.4520 hn         1 ZLH       0.302500
     41 H16        -19.7320    17.8010    32.7830 hc         1 ZLH       0.075950
     42 H17        -21.1860    16.8490    32.2080 hc         1 ZLH       0.075950
@<TRIPOS>BOND
     1     1     2 1   
     2     1     3 1   
     3     1    17 1   
     4     2    16 1   
     5     2    22 1   
     6     2    23 1   
     7     3    19 2   
     8     3    20 1   
     9     4     5 1   
    10     4    20 1   
    11     4    24 1   
    12     4    25 1   
    13     5     6 1   
    14     5    21 1   
    15     5    26 1   
    16     6    21 1   
    17     6    27 1   
    18     6    28 1   
    19     7     9 2   
    20     7    10 1   
    21     7    14 1   
    22     8    12 2   
    23     8    13 1   
    24     8    29 1   
    25    10    11 1   
    26    10    13 2   
    27    11    12 1   
    28    12    30 1   
    29    13    31 1   
    30    14    15 1   
    31    14    16 1   
    32    15    17 1   
    33    15    32 1   
    34    15    33 1   
    35    16    34 1   
    36    16    35 1   
    37    17    18 1   
    38    17    36 1   
    39    18    37 1   
    40    18    38 1   
    41    18    39 1   
    42    20    40 1   
    43    21    41 1   
    44    21    42 1   
@<TRIPOS>SUBSTRUCTURE
     1 ZLH         1 TEMP              0 ****  ****    0 ROOT
