@<TRIPOS>MOLECULE
ZLI
   32    33     1     0     0
SMALL
No Charge or Current Charge


@<TRIPOS>ATOM
      1 C4         -18.5680    14.7580    -2.7010 ca         1 ZLI      -0.107300
      2 C5         -17.2620    14.7350    -2.1760 ca         1 ZLI      -0.089500
      3 C6         -17.0360    14.3090    -0.8550 ca         1 ZLI      -0.110500
      4 C7         -18.8140    15.2260    -4.1280 c3         1 ZLI       0.156300
      5 C10        -20.5410    19.3470    -2.7360 cc         1 ZLI      -0.222300
      6 C13        -21.3600    20.0040    -0.4490 cc         1 ZLI      -0.257000
      7 N          -19.0860    16.6620    -4.1740 ns         1 ZLI      -0.504900
      8 O          -21.3620    16.5470    -4.1050 o          1 ZLI      -0.591100
      9 C1         -18.1130    13.9040    -0.0450 ca         1 ZLI      -0.070300
     10 C11        -19.6720    20.1630    -2.0550 cd         1 ZLI      -0.136000
     11 C12        -20.1350    20.5340    -0.7640 cd         1 ZLI      -0.137000
     12 C2         -19.4180    13.9260    -0.5700 ca         1 ZLI      -0.110500
     13 C3         -19.6450    14.3520    -1.8910 ca         1 ZLI      -0.089500
     14 C9         -20.3680    18.7600    -4.1190 c3         1 ZLI      -0.085100
     15 S          -21.9810    19.0150    -1.7680 ss         1 ZLI       0.273000
     16 H1         -16.4200    15.0490    -2.7890 ha         1 ZLI       0.109500
     17 H2         -16.0220    14.2950    -0.4620 ha         1 ZLI       0.110000
     18 H3         -19.6570    14.6730    -4.5640 h1         1 ZLI       0.055700
     19 H4         -17.9290    15.0180    -4.7440 h1         1 ZLI       0.055700
     20 H5         -21.9450    20.1180     0.4540 h4         1 ZLI       0.148000
     21 H6         -18.3010    17.3010    -4.1760 hn         1 ZLI       0.314500
     22 H7         -17.6920    12.3590     1.4180 hc         1 ZLI       0.041700
     23 H8         -16.9930    13.9370     1.8200 hc         1 ZLI       0.041700
     24 H9         -18.7270    13.6610     2.0280 hc         1 ZLI       0.041700
     25 H10        -18.7210    20.4940    -2.4610 ha         1 ZLI       0.126000
     26 H11        -19.5720    21.1750    -0.0920 ha         1 ZLI       0.131000
     27 H12        -20.2600    13.6140     0.0440 ha         1 ZLI       0.110000
     28 H13        -20.6590    14.3680    -2.2840 ha         1 ZLI       0.109500
     29 H14        -19.4250    19.1370    -4.5320 hc         1 ZLI       0.066200
     30 H15        -21.1990    19.0990    -4.7480 hc         1 ZLI       0.066200
     31 C          -17.8680    13.4410     1.3830 c3         1 ZLI      -0.046800
     32 C8         -20.3430    17.2240    -4.1390 c          1 ZLI       0.598100
@<TRIPOS>BOND
     1     1     2 ar  
     2     1     4 1   
     3     1    13 ar  
     4     2     3 ar  
     5     2    16 1   
     6     3     9 ar  
     7     3    17 1   
     8     4     7 1   
     9     4    18 1   
    10     4    19 1   
    11     5    10 2   
    12     5    14 1   
    13     5    15 1   
    14     6    11 2   
    15     6    15 1   
    16     6    20 1   
    17     7    21 1   
    18     7    32 1   
    19     8    32 2   
    20     9    12 ar  
    21     9    31 1   
    22    10    11 1   
    23    10    25 1   
    24    11    26 1   
    25    12    13 ar  
    26    12    27 1   
    27    13    28 1   
    28    14    29 1   
    29    14    30 1   
    30    14    32 1   
    31    22    31 1   
    32    23    31 1   
    33    24    31 1   
@<TRIPOS>SUBSTRUCTURE
     1 ZLI         1 TEMP              0 ****  ****    0 ROOT
