@<TRIPOS>MOLECULE
ZLI
   32    33     1     0     0
SMALL
abcg2


@<TRIPOS>ATOM
      1 C4         -18.7850    14.6610    -2.7240 ca         1 ZLI      -0.107300
      2 C5         -17.8220    15.3000    -1.9480 ca         1 ZLI      -0.089500
      3 C6         -17.5610    14.8780    -0.6530 ca         1 ZLI      -0.110500
      4 C7         -19.0600    15.1020    -4.1410 c3         1 ZLI       0.156300
      5 C10        -20.2910    19.4390    -2.6390 cc         1 ZLI      -0.222300
      6 C13        -21.0450    20.3430    -0.4590 cc         1 ZLI      -0.257000
      7 N          -19.1750    16.5370    -4.2830 ns         1 ZLI      -0.504900
      8 O          -21.1550    16.6790    -3.2170 o          1 ZLI      -0.591100
      9 C1         -18.2480    13.8030    -0.0920 ca         1 ZLI      -0.070300
     10 C11        -19.4500    20.3850    -2.1320 cd         1 ZLI      -0.136000
     11 C12        -19.8800    20.9040    -0.8790 cd         1 ZLI      -0.137000
     12 C2         -19.2110    13.1680    -0.8710 ca         1 ZLI      -0.110500
     13 C3         -19.4760    13.5920    -2.1670 ca         1 ZLI      -0.089500
     14 C9         -20.1610    18.7250    -3.9450 c3         1 ZLI      -0.085100
     15 S          -21.6200    19.1730    -1.5730 ss         1 ZLI       0.273000
     16 H1         -17.2740    16.1440    -2.3510 ha         1 ZLI       0.109500
     17 H2         -16.8120    15.3960    -0.0670 ha         1 ZLI       0.110000
     18 H3         -19.9650    14.6170    -4.5110 h1         1 ZLI       0.055700
     19 H4         -18.2470    14.7850    -4.7960 h1         1 ZLI       0.055700
     20 H5         -21.5870    20.5400     0.4540 h4         1 ZLI       0.148000
     21 H6         -18.4100    17.0400    -4.6990 hn         1 ZLI       0.314500
     22 H7         -17.1590    12.5720     1.2930 hc         1 ZLI       0.041700
     23 H8         -17.5980    14.1470     1.9340 hc         1 ZLI       0.041700
     24 H9         -18.8190    12.8850     1.7720 hc         1 ZLI       0.041700
     25 H10        -18.5520    20.7050    -2.6440 ha         1 ZLI       0.126000
     26 H11        -19.3420    21.6560    -0.3200 ha         1 ZLI       0.131000
     27 H12        -19.7720    12.3380    -0.4590 ha         1 ZLI       0.110000
     28 H13        -20.2390    13.0880    -2.7480 ha         1 ZLI       0.109500
     29 H14        -19.2390    19.0530    -4.4270 hc         1 ZLI       0.066200
     30 H15        -20.9820    19.0020    -4.6140 hc         1 ZLI       0.066200
     31 C          -17.9440    13.3310     1.3010 c3         1 ZLI      -0.046800
     32 C8         -20.2120    17.2180    -3.7760 c          1 ZLI       0.598100
@<TRIPOS>BOND
     1     1     2 ar  
     2     1     4 1   
     3     1    13 ar  
     4     2     3 ar  
     5     2    16 1   
     6     3     9 ar  
     7     3    17 1   
     8     4     7 1   
     9     4    18 1   
    10     4    19 1   
    11     5    10 2   
    12     5    14 1   
    13     5    15 1   
    14     6    11 2   
    15     6    15 1   
    16     6    20 1   
    17     7    21 1   
    18     7    32 1   
    19     8    32 2   
    20     9    12 ar  
    21     9    31 1   
    22    10    11 1   
    23    10    25 1   
    24    11    26 1   
    25    12    13 ar  
    26    12    27 1   
    27    13    28 1   
    28    14    29 1   
    29    14    30 1   
    30    14    32 1   
    31    22    31 1   
    32    23    31 1   
    33    24    31 1   
@<TRIPOS>SUBSTRUCTURE
     1 ZLI         1 TEMP              0 ****  ****    0 ROOT
