@<TRIPOS>MOLECULE
ZLJ
   11    10     1     0     0
SMALL
abcg2


@<TRIPOS>ATOM
      1 C10         31.6370    12.7920     9.3570 c3         1 ZLJ      -0.367400
      2 C9          32.0440    12.4450    10.7690 c3         1 ZLJ       0.201600
      3 O1S         31.3450    11.8200     6.9470 o          1 ZLJ      -0.692533
      4 O2S         32.8030    10.5980     8.5200 o          1 ZLJ      -0.692533
      5 O3S         30.3620    10.5650     8.8310 o          1 ZLJ      -0.692533
      6 S           31.5270    11.3100     8.3180 s6         1 ZLJ       1.321600
      7 CL1         31.9660    13.9120    11.8180 cl         1 ZLJ      -0.372000
      8 H102        30.6570    13.2710     9.3400 h1         1 ZLJ       0.079700
      9 H101        32.3600    13.4720     8.9040 h1         1 ZLJ       0.079700
     10 H91         31.3820    11.7070    11.2150 h1         1 ZLJ       0.067700
     11 H92         33.0680    12.0830    10.8140 h1         1 ZLJ       0.067700
@<TRIPOS>BOND
     1     1     2 1   
     2     1     6 1   
     3     1     8 1   
     4     1     9 1   
     5     2     7 1   
     6     2    10 1   
     7     2    11 1   
     8     3     6 1   
     9     4     6 1   
    10     5     6 1   
@<TRIPOS>SUBSTRUCTURE
     1 ZLJ         1 TEMP              0 ****  ****    0 ROOT
