@<TRIPOS>MOLECULE
ZLJ
   11    10     1     0     0
SMALL
No Charge or Current Charge


@<TRIPOS>ATOM
      1 C10         31.6440    12.7850     9.3370 c3         1 ZLJ      -0.367400
      2 C9          31.9890    12.4280    10.7870 c3         1 ZLJ       0.201600
      3 O1S         31.2240    11.8430     6.9850 o          1 ZLJ      -0.692533
      4 O2S         32.9050    10.7370     8.4220 o          1 ZLJ      -0.692533
      5 O3S         30.4960    10.5170     8.9400 o          1 ZLJ      -0.692533
      6 S           31.5580    11.3160     8.3150 s6         1 ZLJ       1.321600
      7 Cl1         32.0670    13.9420    11.7930 cl         1 ZLJ      -0.372000
      8 H102        30.6650    13.2700     9.2760 h1         1 ZLJ       0.079700
      9 H101        32.4130    13.4290     8.8990 h1         1 ZLJ       0.079700
     10 H91         31.2240    11.7750    11.2280 h1         1 ZLJ       0.067700
     11 H92         32.9680    11.9340    10.8520 h1         1 ZLJ       0.067700
@<TRIPOS>BOND
     1     1     2 1   
     2     1     6 1   
     3     1     8 1   
     4     1     9 1   
     5     2     7 1   
     6     2    10 1   
     7     2    11 1   
     8     3     6 1   
     9     4     6 1   
    10     5     6 1   
@<TRIPOS>SUBSTRUCTURE
     1 ZLJ         1 TEMP              0 ****  ****    0 ROOT
