@<TRIPOS>MOLECULE
ZLK
   74    78     1     0     0
SMALL
No Charge or Current Charge


@<TRIPOS>ATOM
      1 C11          3.4670     2.3100    -0.2810 ca         1 ZLK      -0.065800
      2 C01         -1.7660     5.2240    -0.9980 c3         1 ZLK       0.145900
      3 C03         -0.8880     2.9080    -1.0690 ca         1 ZLK       0.141100
      4 C04          0.1810     2.0450    -1.3930 ca         1 ZLK      -0.075300
      5 C05          1.4790     2.5820    -1.9910 c3         1 ZLK       0.056100
      6 C06          2.4350     3.0720    -0.9340 cc         1 ZLK      -0.141400
      7 C07          2.4780     4.3420    -0.3660 cd         1 ZLK      -0.134100
      8 C09          3.9100     5.5050     1.4630 c3         1 ZLK       0.067900
      9 C10          4.0810     3.1260     0.6270 ca         1 ZLK      -0.071200
     10 C12          3.8520     0.9730    -0.4590 ca         1 ZLK      -0.086000
     11 C13          4.9110     0.4660     0.3350 ca         1 ZLK      -0.041000
     12 C15          4.9810    -1.9450    -0.5370 c          1 ZLK       0.648100
     13 C18          5.4350    -4.2550    -0.9230 c5         1 ZLK       0.193300
     14 C19          6.5320    -5.2970    -0.5940 c5         1 ZLK      -0.095400
     15 C20          6.2710    -5.6600     0.9030 c5         1 ZLK      -0.076400
     16 C21          4.7680    -5.3130     1.1590 c5         1 ZLK      -0.076400
     17 C22          4.2090    -4.9230    -0.2400 c5         1 ZLK      -0.095400
     18 C23          5.5440     1.3190     1.2730 ca         1 ZLK      -0.140000
     19 C24          5.1330     2.6600     1.4280 ca         1 ZLK      -0.097000
     20 C25          0.0530     0.6650    -1.1480 ca         1 ZLK      -0.084000
     21 C26         -1.1230     0.1400    -0.5900 ca         1 ZLK      -0.112000
     22 C27         -2.2070     0.9880    -0.2600 ca         1 ZLK      -0.125600
     23 C28         -2.0710     2.3750    -0.5070 ca         1 ZLK      -0.150000
     24 C29         -3.4980     0.4580     0.3440 c          1 ZLK       0.646700
     25 C35         -6.2310    -1.4150     0.0390 ca         1 ZLK      -0.278500
     26 C36         -7.3220    -0.6650     0.5360 ca         1 ZLK       0.001000
     27 C37         -8.4190    -0.3670    -0.2870 ca         1 ZLK      -0.134000
     28 C38         -8.4400    -0.8080    -1.6160 ca         1 ZLK      -0.049000
     29 C39         -7.3600    -1.5460    -2.1230 ca         1 ZLK      -0.138000
     30 C40         -6.2470    -1.8550    -1.3140 ca         1 ZLK       0.028700
     31 C41         -5.1040    -2.6490    -1.9440 c3         1 ZLK      -0.074800
     32 N08          3.5040     4.3840     0.6020 na         1 ZLK      -0.087700
     33 N14          5.3790    -0.8730     0.2420 ns         1 ZLK      -0.141000
     34 N31         -3.5560    -0.8830     0.5590 ns         1 ZLK      -0.585300
     35 O16          4.0860    -1.9370    -1.3720 o          1 ZLK      -0.540000
     36 O17          5.7780    -3.0200    -0.2350 os         1 ZLK      -0.466100
     37 O30         -4.4330     1.1950     0.6170 o          1 ZLK      -0.556100
     38 O33         -5.1480    -1.1930     2.4810 o          1 ZLK      -0.533500
     39 O34         -4.4420    -3.1600     1.0170 o          1 ZLK      -0.533500
     40 S32         -4.8460    -1.7580     1.1600 sy         1 ZLK       1.176300
     41 H1          -1.4340     6.2330    -1.2710 h1         1 ZLK       0.043367
     42 H2          -2.6880     5.0080    -1.5530 h1         1 ZLK       0.043367
     43 H3          -1.9890     5.2180     0.0760 h1         1 ZLK       0.043367
     44 H4           1.9650     1.8070    -2.5960 hc         1 ZLK       0.055700
     45 H5           1.2660     3.3950    -2.6950 hc         1 ZLK       0.055700
     46 H6           1.8540     5.2050    -0.5750 h4         1 ZLK       0.212000
     47 H7           3.7820     5.2260     2.5160 h1         1 ZLK       0.047367
     48 H8           4.9640     5.7480     1.2760 h1         1 ZLK       0.047367
     49 H9           3.2920     6.3840     1.2440 h1         1 ZLK       0.047367
     50 H10          3.3380     0.3620    -1.1920 ha         1 ZLK       0.145000
     51 H11          5.3190    -4.0860    -2.0030 h1         1 ZLK       0.072700
     52 H12          6.4270    -6.1810    -1.2340 hc         1 ZLK       0.056950
     53 H13          7.5420    -4.9060    -0.7580 hc         1 ZLK       0.056950
     54 H14          6.4860    -6.7170     1.0990 hc         1 ZLK       0.045700
     55 H15          6.9190    -5.0790     1.5690 hc         1 ZLK       0.045700
     56 H16          4.2180    -6.1540     1.5970 hc         1 ZLK       0.045700
     57 H17          4.6790    -4.4770     1.8630 hc         1 ZLK       0.045700
     58 H18          3.3380    -4.2630    -0.1720 hc         1 ZLK       0.056950
     59 H19          3.8900    -5.8100    -0.7990 hc         1 ZLK       0.056950
     60 H20          6.3580     0.9400     1.8870 ha         1 ZLK       0.109000
     61 H21          5.6220     3.3080     2.1520 ha         1 ZLK       0.114000
     62 H22          0.8720    -0.0090    -1.3900 ha         1 ZLK       0.128000
     63 H23         -1.1710    -0.9320    -0.4220 ha         1 ZLK       0.115000
     64 H24         -2.8990     3.0320    -0.2560 ha         1 ZLK       0.138000
     65 H25         -7.3310    -0.3050     1.5640 ha         1 ZLK       0.148000
     66 H26         -9.2530     0.2090     0.1070 ha         1 ZLK       0.121000
     67 H27         -9.2900    -0.5770    -2.2540 ha         1 ZLK       0.116000
     68 H28         -7.3900    -1.8770    -3.1590 ha         1 ZLK       0.114000
     69 H29         -4.1400    -2.1450    -1.8200 hc         1 ZLK       0.058700
     70 H30         -5.0300    -3.6530    -1.5110 hc         1 ZLK       0.058700
     71 H31         -5.2500    -2.7800    -3.0230 hc         1 ZLK       0.058700
     72 H32          6.1460    -1.0890     0.8650 hn         1 ZLK       0.163000
     73 H33         -2.7820    -1.4720     0.3180 hn         1 ZLK       0.349500
     74 O02         -0.7430     4.2630    -1.3130 os         1 ZLK      -0.339100
@<TRIPOS>BOND
     1     1     6 1   
     2     1     9 ar  
     3     1    10 ar  
     4     2    41 1   
     5     2    42 1   
     6     2    43 1   
     7     2    74 1   
     8     3     4 ar  
     9     3    23 ar  
    10     3    74 1   
    11     4     5 1   
    12     4    20 ar  
    13     5     6 1   
    14     5    44 1   
    15     5    45 1   
    16     6     7 2   
    17     7    32 1   
    18     7    46 1   
    19     8    32 1   
    20     8    47 1   
    21     8    48 1   
    22     8    49 1   
    23     9    19 ar  
    24     9    32 1   
    25    10    11 ar  
    26    10    50 1   
    27    11    18 ar  
    28    11    33 1   
    29    12    33 1   
    30    12    35 2   
    31    12    36 1   
    32    13    14 1   
    33    13    17 1   
    34    13    36 1   
    35    13    51 1   
    36    14    15 1   
    37    14    52 1   
    38    14    53 1   
    39    15    16 1   
    40    15    54 1   
    41    15    55 1   
    42    16    17 1   
    43    16    56 1   
    44    16    57 1   
    45    17    58 1   
    46    17    59 1   
    47    18    19 ar  
    48    18    60 1   
    49    19    61 1   
    50    20    21 ar  
    51    20    62 1   
    52    21    22 ar  
    53    21    63 1   
    54    22    23 ar  
    55    22    24 1   
    56    23    64 1   
    57    24    34 1   
    58    24    37 2   
    59    25    26 ar  
    60    25    30 ar  
    61    25    40 1   
    62    26    27 ar  
    63    26    65 1   
    64    27    28 ar  
    65    27    66 1   
    66    28    29 ar  
    67    28    67 1   
    68    29    30 ar  
    69    29    68 1   
    70    30    31 1   
    71    31    69 1   
    72    31    70 1   
    73    31    71 1   
    74    33    72 1   
    75    34    40 1   
    76    34    73 1   
    77    38    40 2   
    78    39    40 2   
@<TRIPOS>SUBSTRUCTURE
     1 ZLK         1 TEMP              0 ****  ****    0 ROOT
