@<TRIPOS>MOLECULE
ZLK
   74    78     1     0     0
SMALL
bcc


@<TRIPOS>ATOM
      1 C11          3.3550     2.6050    -0.5060 ca         1 ZLK      -0.065800
      2 C01         -1.3100     5.0730     0.2560 c3         1 ZLK       0.122700
      3 C03         -0.6200     3.0350    -0.7490 ca         1 ZLK       0.141100
      4 C04          0.2990     2.3840    -1.5920 ca         1 ZLK      -0.075300
      5 C05          1.4450     3.1390    -2.2140 c3         1 ZLK       0.056100
      6 C06          2.4930     3.5050    -1.2100 cc         1 ZLK      -0.141400
      7 C07          2.8070     4.7570    -0.7600 cd         1 ZLK      -0.084100
      8 C09          4.3980     5.8210     0.8580 c3         1 ZLK       0.038600
      9 C10          4.1590     3.3920     0.3440 ca         1 ZLK      -0.071200
     10 C12          3.5040     1.2140    -0.5240 ca         1 ZLK      -0.104000
     11 C13          4.4570     0.6370     0.3000 ca         1 ZLK       0.051600
     12 C15          4.2880    -1.7090    -0.4800 c          1 ZLK       0.764100
     13 C18          4.3130    -4.0710    -0.7820 c5         1 ZLK       0.170100
     14 C19          5.1270    -5.2230    -0.2180 c5         1 ZLK      -0.095400
     15 C20          4.4430    -5.5730     1.1130 c5         1 ZLK      -0.076400
     16 C21          2.9910    -5.0550     0.9830 c5         1 ZLK      -0.076400
     17 C22          2.8860    -4.4660    -0.4310 c5         1 ZLK      -0.095400
     18 C23          5.2530     1.4440     1.1420 ca         1 ZLK      -0.158000
     19 C24          5.1130     2.8150     1.1780 ca         1 ZLK      -0.115000
     20 C25          0.1360     1.0270    -1.8170 ca         1 ZLK      -0.102000
     21 C26         -0.8810     0.2980    -1.2130 ca         1 ZLK      -0.130000
     22 C27         -1.7700     0.9490    -0.3700 ca         1 ZLK      -0.125600
     23 C28         -1.6480     2.3220    -0.1500 ca         1 ZLK      -0.168000
     24 C29         -2.8990     0.2500     0.2940 c          1 ZLK       0.713700
     25 C35         -5.2850    -1.9400     0.0570 ca         1 ZLK      -0.278500
     26 C36         -6.4300    -1.3370     0.5650 ca         1 ZLK      -0.017000
     27 C37         -7.5570    -1.2240    -0.2310 ca         1 ZLK      -0.152000
     28 C38         -7.5240    -1.7090    -1.5290 ca         1 ZLK      -0.067000
     29 C39         -6.3710    -2.3010    -2.0240 ca         1 ZLK      -0.156000
     30 C40         -5.2200    -2.4380    -1.2520 ca         1 ZLK       0.028700
     31 C41         -4.0100    -3.0840    -1.8610 c3         1 ZLK      -0.074800
     32 N08          3.8080     4.7010     0.1690 na         1 ZLK      -0.058400
     33 N14          4.6750    -0.7460     0.3920 ns         1 ZLK      -0.467100
     34 N31         -2.7390    -1.1060     0.4620 ns         1 ZLK      -0.652300
     35 O16          3.6600    -1.5330    -1.5010 o          1 ZLK      -0.589000
     36 O17          4.7120    -2.8980    -0.0500 os         1 ZLK      -0.442900
     37 O30         -3.9060     0.8140     0.6620 o          1 ZLK      -0.556100
     38 O33         -4.2850    -1.5480     2.4550 o          1 ZLK      -0.604300
     39 O34         -3.3380    -3.4160     1.1020 o          1 ZLK      -0.604300
     40 S32         -3.9110    -2.0840     1.1620 sy         1 ZLK       1.317900
     41 H1          -0.9630     6.1020     0.2550 h1         1 ZLK       0.043367
     42 H2          -2.3390     5.0470    -0.1120 h1         1 ZLK       0.043367
     43 H3          -1.2920     4.6950     1.2810 h1         1 ZLK       0.043367
     44 H4           1.8800     2.5140    -2.9980 hc         1 ZLK       0.055700
     45 H5           1.0810     4.0420    -2.7080 hc         1 ZLK       0.055700
     46 H6           2.3770     5.7070    -1.0380 h4         1 ZLK       0.162000
     47 H7           4.2360     5.7500     1.9330 h1         1 ZLK       0.047367
     48 H8           5.4700     5.8760     0.6700 h1         1 ZLK       0.047367
     49 H9           3.9410     6.7400     0.5010 h1         1 ZLK       0.047367
     50 H10          2.8800     0.6090    -1.1610 ha         1 ZLK       0.163000
     51 H11          4.4760    -3.9120    -1.8500 h1         1 ZLK       0.072700
     52 H12          5.0500    -6.0560    -0.9200 hc         1 ZLK       0.056950
     53 H13          6.1880    -4.9860    -0.1200 hc         1 ZLK       0.056950
     54 H14          4.4810    -6.6460     1.3040 hc         1 ZLK       0.045700
     55 H15          4.9510    -5.0880     1.9470 hc         1 ZLK       0.045700
     56 H16          2.2560    -5.8460     1.1390 hc         1 ZLK       0.045700
     57 H17          2.7890    -4.2880     1.7320 hc         1 ZLK       0.045700
     58 H18          2.1710    -3.6460    -0.5110 hc         1 ZLK       0.056950
     59 H19          2.5700    -5.2330    -1.1420 hc         1 ZLK       0.056950
     60 H20          5.9930     0.9730     1.7780 ha         1 ZLK       0.127000
     61 H21          5.7340     3.4120     1.8350 ha         1 ZLK       0.132000
     62 H22          0.8220     0.5200    -2.4840 ha         1 ZLK       0.146000
     63 H23         -0.9740    -0.7550    -1.4440 ha         1 ZLK       0.133000
     64 H24         -2.3610     2.8120     0.4990 ha         1 ZLK       0.156000
     65 H25         -6.4470    -0.9530     1.5740 ha         1 ZLK       0.166000
     66 H26         -8.4490    -0.7570     0.1620 ha         1 ZLK       0.139000
     67 H27         -8.3960    -1.6270    -2.1640 ha         1 ZLK       0.134000
     68 H28         -6.3590    -2.6720    -3.0420 ha         1 ZLK       0.132000
     69 H29         -3.1470    -2.4170    -1.8650 hc         1 ZLK       0.058700
     70 H30         -3.7210    -3.9900    -1.3330 hc         1 ZLK       0.058700
     71 H31         -4.2160    -3.3520    -2.8950 hc         1 ZLK       0.058700
     72 H32          5.2290    -1.0520     1.1780 hn         1 ZLK       0.329500
     73 H33         -1.8470    -1.5570     0.2960 hn         1 ZLK       0.349500
     74 O02         -0.4310     4.3530    -0.5860 os         1 ZLK      -0.315900
@<TRIPOS>BOND
     1     1     6 1   
     2     1     9 ar  
     3     1    10 ar  
     4     2    41 1   
     5     2    42 1   
     6     2    43 1   
     7     2    74 1   
     8     3     4 ar  
     9     3    23 ar  
    10     3    74 1   
    11     4     5 1   
    12     4    20 ar  
    13     5     6 1   
    14     5    44 1   
    15     5    45 1   
    16     6     7 2   
    17     7    32 1   
    18     7    46 1   
    19     8    32 1   
    20     8    47 1   
    21     8    48 1   
    22     8    49 1   
    23     9    19 ar  
    24     9    32 1   
    25    10    11 ar  
    26    10    50 1   
    27    11    18 ar  
    28    11    33 1   
    29    12    33 1   
    30    12    35 2   
    31    12    36 1   
    32    13    14 1   
    33    13    17 1   
    34    13    36 1   
    35    13    51 1   
    36    14    15 1   
    37    14    52 1   
    38    14    53 1   
    39    15    16 1   
    40    15    54 1   
    41    15    55 1   
    42    16    17 1   
    43    16    56 1   
    44    16    57 1   
    45    17    58 1   
    46    17    59 1   
    47    18    19 ar  
    48    18    60 1   
    49    19    61 1   
    50    20    21 ar  
    51    20    62 1   
    52    21    22 ar  
    53    21    63 1   
    54    22    23 ar  
    55    22    24 1   
    56    23    64 1   
    57    24    34 1   
    58    24    37 2   
    59    25    26 ar  
    60    25    30 ar  
    61    25    40 1   
    62    26    27 ar  
    63    26    65 1   
    64    27    28 ar  
    65    27    66 1   
    66    28    29 ar  
    67    28    67 1   
    68    29    30 ar  
    69    29    68 1   
    70    30    31 1   
    71    31    69 1   
    72    31    70 1   
    73    31    71 1   
    74    33    72 1   
    75    34    40 1   
    76    34    73 1   
    77    38    40 2   
    78    39    40 2   
@<TRIPOS>SUBSTRUCTURE
     1 ZLK         1 TEMP              0 ****  ****    0 ROOT
