@<TRIPOS>MOLECULE
ZLL
   46    48     1     0     0
SMALL
No Charge or Current Charge


@<TRIPOS>ATOM
      1 F26        371.9250    52.3820   508.8360 f          1 ZLL      -0.176500
      2 C21        372.9640    51.5360   509.0050 ca         1 ZLL       0.189000
      3 C20        374.2790    52.0160   508.8930 ca         1 ZLL      -0.153500
      4 C22        372.7220    50.1860   509.2900 ca         1 ZLL      -0.187000
      5 C23        373.8050    49.3130   509.4630 ca         1 ZLL       0.189000
      6 F25        373.5780    48.0100   509.7350 f          1 ZLL      -0.176500
      7 C24        375.1220    49.7840   509.3530 ca         1 ZLL      -0.153500
      8 C19        375.3710    51.1410   509.0670 ca         1 ZLL      -0.036300
      9 C18        376.8050    51.6500   508.9410 c3         1 ZLL       0.210100
     10 N15        377.5410    51.0550   507.7970 n3         1 ZLL      -0.722600
     11 C14        376.9380    51.3910   506.4800 c6         1 ZLL       0.152800
     12 C13        377.6460    50.6730   505.2980 c6         1 ZLL       0.099500
     13 C16        378.9720    51.4450   507.7850 c6         1 ZLL       0.152800
     14 C17        379.7750    50.7200   506.6720 c6         1 ZLL       0.099500
     15 N12        379.1450    50.7140   505.3160 n          1 ZLL      -0.416800
     16 C10        379.9140    50.3320   504.2000 c          1 ZLL       0.642100
     17 O11        381.1240    50.1830   504.2670 o          1 ZLL      -0.634100
     18 N9         379.2240    50.1410   503.0280 ns         1 ZLL      -0.514900
     19 C8         379.8230    49.7020   501.7670 c3         1 ZLL       0.154300
     20 C5         379.6280    48.2070   501.5560 ca         1 ZLL      -0.093300
     21 C4         378.5250    47.7300   500.8180 ca         1 ZLL      -0.104500
     22 C3         378.3430    46.3490   500.6300 ca         1 ZLL      -0.079000
     23 C6         380.5430    47.2880   502.1050 ca         1 ZLL      -0.104500
     24 C7         380.3620    45.9070   501.9170 ca         1 ZLL      -0.079000
     25 C2         379.2620    45.4390   501.1790 ca         1 ZLL      -0.010900
     26 Br1        379.0130    43.5600   500.9240 br         1 ZLL      -0.112100
     27 H1         374.4460    53.0670   508.6680 ha         1 ZLL       0.141500
     28 H2         371.7040    49.8180   509.3760 ha         1 ZLL       0.152000
     29 H3         375.9530    49.0950   509.4830 ha         1 ZLL       0.141500
     30 H4         377.3260    51.4120   509.8780 h1         1 ZLL       0.047200
     31 H5         376.7950    52.7450   508.8540 h1         1 ZLL       0.047200
     32 H7         376.9910    52.4770   506.3110 h1         1 ZLL       0.045450
     33 H8         375.8730    51.1180   506.4560 h1         1 ZLL       0.045450
     34 H9         377.2690    51.1220   504.3680 h1         1 ZLL       0.053950
     35 H10        377.3350    49.6190   505.3000 h1         1 ZLL       0.053950
     36 H11        379.4410    51.2200   508.7540 h1         1 ZLL       0.045450
     37 H12        379.0650    52.5310   507.6310 h1         1 ZLL       0.045450
     38 H13        379.9230    49.6750   506.9810 h1         1 ZLL       0.053950
     39 H14        380.7720    51.1800   506.6130 h1         1 ZLL       0.053950
     40 H15        378.2240    50.2810   503.0580 hn         1 ZLL       0.307500
     41 H16        380.8950    49.9430   501.7540 h1         1 ZLL       0.071700
     42 H17        379.3540    50.2560   500.9430 h1         1 ZLL       0.071700
     43 H18        377.8090    48.4290   500.3920 ha         1 ZLL       0.114500
     44 H19        377.4910    45.9860   500.0600 ha         1 ZLL       0.130000
     45 H20        381.3950    47.6450   502.6810 ha         1 ZLL       0.114500
     46 H21        381.0710    45.2020   502.3440 ha         1 ZLL       0.130000
@<TRIPOS>BOND
     1     1     2 1   
     2     2     3 ar  
     3     2     4 ar  
     4     3     8 ar  
     5     3    27 1   
     6     4     5 ar  
     7     4    28 1   
     8     5     6 1   
     9     5     7 ar  
    10     7     8 ar  
    11     7    29 1   
    12     8     9 1   
    13     9    10 1   
    14     9    30 1   
    15     9    31 1   
    16    10    11 1   
    17    10    13 1   
    18    11    12 1   
    19    11    32 1   
    20    11    33 1   
    21    12    15 1   
    22    12    34 1   
    23    12    35 1   
    24    13    14 1   
    25    13    36 1   
    26    13    37 1   
    27    14    15 1   
    28    14    38 1   
    29    14    39 1   
    30    15    16 1   
    31    16    17 2   
    32    16    18 1   
    33    18    19 1   
    34    18    40 1   
    35    19    20 1   
    36    19    41 1   
    37    19    42 1   
    38    20    21 ar  
    39    20    23 ar  
    40    21    22 ar  
    41    21    43 1   
    42    22    25 ar  
    43    22    44 1   
    44    23    24 ar  
    45    23    45 1   
    46    24    25 ar  
    47    24    46 1   
    48    25    26 1   
@<TRIPOS>SUBSTRUCTURE
     1 ZLL         1 TEMP              0 ****  ****    0 ROOT
