@<TRIPOS>MOLECULE
ZLL
   46    48     1     0     0
SMALL
abcg2


@<TRIPOS>ATOM
      1 F26        372.0360    52.9650   508.9090 f          1 ZLL      -0.176500
      2 C21        372.9600    51.9780   509.0000 ca         1 ZLL       0.189000
      3 C20        374.3010    52.3130   508.9050 ca         1 ZLL      -0.153500
      4 C22        372.5150    50.6810   509.1710 ca         1 ZLL      -0.187000
      5 C23        373.4950    49.7040   509.2450 ca         1 ZLL       0.189000
      6 F25        373.1000    48.4180   509.4150 f          1 ZLL      -0.176500
      7 C24        374.8440    49.9770   509.1550 ca         1 ZLL      -0.153500
      8 C19        375.2540    51.3010   508.9820 ca         1 ZLL      -0.036300
      9 C18        376.7260    51.6160   508.8750 c3         1 ZLL       0.210100
     10 N15        377.3560    50.8970   507.7720 n3         1 ZLL      -0.722600
     11 C14        376.9140    51.3920   506.4750 c6         1 ZLL       0.152800
     12 C13        377.4730    50.5430   505.3440 c6         1 ZLL       0.099500
     13 C16        378.8120    50.9490   507.8390 c6         1 ZLL       0.152800
     14 C17        379.4210    50.0700   506.7620 c6         1 ZLL       0.099500
     15 N12        378.9280    50.4430   505.4370 n          1 ZLL      -0.416800
     16 C10        379.7280    50.1400   504.3590 c          1 ZLL       0.642100
     17 O11        380.9280    49.8700   504.4920 o          1 ZLL      -0.634100
     18 N9         379.1490    50.1890   503.1210 ns         1 ZLL      -0.514900
     19 C8         379.8730    49.7700   501.9420 c3         1 ZLL       0.154300
     20 C5         379.8460    48.2770   501.6630 ca         1 ZLL      -0.093300
     21 C4         379.1860    47.3740   502.4890 ca         1 ZLL      -0.104500
     22 C3         379.1740    46.0110   502.1990 ca         1 ZLL      -0.079000
     23 C6         380.5010    47.7920   500.5300 ca         1 ZLL      -0.104500
     24 C7         380.5000    46.4380   500.2230 ca         1 ZLL      -0.079000
     25 C2         379.8320    45.5610   501.0670 ca         1 ZLL      -0.010900
     26 BR1        379.8200    43.6880   500.6530 br         1 ZLL      -0.112100
     27 H1         374.5910    53.3450   508.7630 ha         1 ZLL       0.141500
     28 H2         371.4640    50.4430   509.2400 ha         1 ZLL       0.152000
     29 H3         375.5660    49.1750   509.2050 ha         1 ZLL       0.141500
     30 H4         377.2260    51.3050   509.7960 h1         1 ZLL       0.047200
     31 H5         376.8610    52.7040   508.7820 h1         1 ZLL       0.047200
     32 H7         377.2260    52.4410   506.3320 h1         1 ZLL       0.045450
     33 H8         375.8260    51.3590   506.4250 h1         1 ZLL       0.045450
     34 H9         377.1870    51.0260   504.4120 h1         1 ZLL       0.053950
     35 H10        377.0190    49.5450   505.3730 h1         1 ZLL       0.053950
     36 H11        379.1350    50.5850   508.8160 h1         1 ZLL       0.045450
     37 H12        379.1790    51.9830   507.7220 h1         1 ZLL       0.045450
     38 H13        379.1690    49.0220   506.9690 h1         1 ZLL       0.053950
     39 H14        380.5020    50.1680   506.7680 h1         1 ZLL       0.053950
     40 H15        378.1480    50.2250   503.0420 hn         1 ZLL       0.307500
     41 H16        380.9070    50.0960   502.0400 h1         1 ZLL       0.071700
     42 H17        379.4500    50.2970   501.0850 h1         1 ZLL       0.071700
     43 H18        378.6670    47.7230   503.3720 ha         1 ZLL       0.114500
     44 H19        378.6570    45.3190   502.8490 ha         1 ZLL       0.130000
     45 H20        381.0210    48.4810   499.8740 ha         1 ZLL       0.114500
     46 H21        381.0100    46.0750   499.3410 ha         1 ZLL       0.130000
@<TRIPOS>BOND
     1     1     2 1   
     2     2     3 ar  
     3     2     4 ar  
     4     3     8 ar  
     5     3    27 1   
     6     4     5 ar  
     7     4    28 1   
     8     5     6 1   
     9     5     7 ar  
    10     7     8 ar  
    11     7    29 1   
    12     8     9 1   
    13     9    10 1   
    14     9    30 1   
    15     9    31 1   
    16    10    11 1   
    17    10    13 1   
    18    11    12 1   
    19    11    32 1   
    20    11    33 1   
    21    12    15 1   
    22    12    34 1   
    23    12    35 1   
    24    13    14 1   
    25    13    36 1   
    26    13    37 1   
    27    14    15 1   
    28    14    38 1   
    29    14    39 1   
    30    15    16 1   
    31    16    17 2   
    32    16    18 1   
    33    18    19 1   
    34    18    40 1   
    35    19    20 1   
    36    19    41 1   
    37    19    42 1   
    38    20    21 ar  
    39    20    23 ar  
    40    21    22 ar  
    41    21    43 1   
    42    22    25 ar  
    43    22    44 1   
    44    23    24 ar  
    45    23    45 1   
    46    24    25 ar  
    47    24    46 1   
    48    25    26 1   
@<TRIPOS>SUBSTRUCTURE
     1 ZLL         1 TEMP              0 ****  ****    0 ROOT
