@<TRIPOS>MOLECULE
ZLM
   89    93     1     0     0
SMALL
abcg2


@<TRIPOS>ATOM
      1 N1          78.6530    34.0830     2.2080 n3         1 ZLM      -0.715600
      2 N3          75.2390    37.8210     6.4050 n          1 ZLM      -0.292000
      3 C4          68.9580    30.9020    -0.6830 c3         1 ZLM      -0.069400
      4 C5          70.4070    30.5170    -0.4170 c3         1 ZLM      -0.077400
      5 C10         77.5860    31.5740    -0.6830 cx         1 ZLM      -0.248700
      6 C13         78.6480    33.9620    -0.2520 c6         1 ZLM      -0.053400
      7 C15         78.0440    34.6980     3.3750 c3         1 ZLM       0.165800
      8 C20         73.7630    35.2550     0.6620 cc         1 ZLM      -0.173000
      9 C21         74.0440    36.0480     1.8460 ca         1 ZLM       0.045000
     10 C24         75.0190    35.6510     5.4390 cc         1 ZLM      -0.272200
     11 C2          66.5020    30.2080    -0.2990 c3         1 ZLM       0.414000
     12 C9          76.3490    32.1370    -1.2810 c          1 ZLM       0.633100
     13 C14         77.9820    34.5200     0.9960 c6         1 ZLM       0.169800
     14 C16         78.8450    34.5270     4.6550 c3         1 ZLM      -0.089100
     15 C18         79.3760    32.0120     1.0990 c6         1 ZLM      -0.053400
     16 C19         73.7020    33.5180    -0.6920 cc         1 ZLM       0.400800
     17 C25         75.2900    36.4540     6.4840 cd         1 ZLM      -0.034400
     18 C29         74.2740    38.2280     2.8670 ca         1 ZLM      -0.037000
     19 C30         74.6190    37.6380     4.0900 ca         1 ZLM      -0.172600
     20 O3          74.9300    39.7110     5.1910 o          1 ZLM      -0.552000
     21 C31         74.9330    38.4870     5.2380 c          1 ZLM       0.571600
     22 C27         77.0720    38.9560     7.6230 c3         1 ZLM      -0.112100
     23 C23         74.6660    36.2380     4.1850 ca         1 ZLM       0.023200
     24 C22         74.3720    35.4620     3.0570 ca         1 ZLM      -0.141000
     25 C28         73.9930    37.4550     1.7680 ca         1 ZLM      -0.124000
     26 N2          74.0760    33.9250     0.5360 na         1 ZLM      -0.285500
     27 C32         73.1770    35.5780    -0.5380 cd         1 ZLM       0.270900
     28 N4          73.1460    34.4970    -1.3650 nd         1 ZLM      -0.658000
     29 C8          73.8960    32.1070    -1.1600 c3         1 ZLM       0.089400
     30 C7          72.8380    31.1580    -0.5910 c3         1 ZLM      -0.084400
     31 C3          67.9870    29.8480    -0.1630 c3         1 ZLM      -0.139400
     32 O1          66.1950    31.3840     0.4040 oh         1 ZLM      -0.641500
     33 O           66.1860    30.5570    -1.6230 oh         1 ZLM      -0.641500
     34 C1          65.5970    29.0510     0.1560 c3         1 ZLM      -0.134400
     35 C           65.7120    28.6770     1.6280 c3         1 ZLM      -0.088100
     36 N           75.2060    31.6200    -0.7800 ns         1 ZLM      -0.525900
     37 O2          76.3360    32.9980    -2.1510 o          1 ZLM      -0.581100
     38 C12         78.7250    32.4560    -0.1900 cx         1 ZLM      -0.070000
     39 C11         78.8960    31.6520    -1.4230 cx         1 ZLM      -0.078400
     40 C17         78.6660    32.6320     2.2940 c6         1 ZLM       0.169800
     41 H2          68.7530    31.8660    -0.2100 hc         1 ZLM       0.055700
     42 H3          68.8140    31.0480    -1.7570 hc         1 ZLM       0.055700
     43 H4          70.6200    29.5460    -0.8790 hc         1 ZLM       0.031700
     44 H5          70.5520    30.3770     0.6590 hc         1 ZLM       0.031700
     45 H6          71.1690    32.5230    -0.4890 hc         1 ZLM       0.057700
     46 H7          71.2990    31.6640    -2.0090 hc         1 ZLM       0.057700
     47 H8          77.4300    30.6780    -0.0900 hc         1 ZLM       0.077700
     48 H9          79.6690    34.3510    -0.3190 hc         1 ZLM       0.060700
     49 H10         78.1180    34.3090    -1.1380 hc         1 ZLM       0.060700
     50 H11         77.9470    35.7670     3.1700 h1         1 ZLM       0.030200
     51 H12         77.0170    34.3260     3.5320 h1         1 ZLM       0.030200
     52 H13         75.0670    34.5780     5.5560 ha         1 ZLM       0.195000
     53 H14         74.9800    39.4960     7.6120 h1         1 ZLM       0.061700
     54 H15         75.3290    38.0060     8.4620 h1         1 ZLM       0.061700
     55 H16         78.0040    35.6130     0.9610 h1         1 ZLM       0.028200
     56 H17         76.9150    34.2300     1.0000 h1         1 ZLM       0.028200
     57 H18         78.3890    35.1150     5.4520 hc         1 ZLM       0.036033
     58 H19         78.8790    33.4930     4.9980 hc         1 ZLM       0.036033
     59 H20         79.8700    34.8760     4.5240 hc         1 ZLM       0.036033
     60 H21         79.3670    30.9230     1.1920 hc         1 ZLM       0.060700
     61 H22         80.4250    32.3260     1.0990 hc         1 ZLM       0.060700
     62 H23         75.5580    36.0570     7.4530 h4         1 ZLM       0.197000
     63 H24         74.2370    39.3060     2.7850 ha         1 ZLM       0.139000
     64 H25         77.2970    39.5160     8.5310 hc         1 ZLM       0.046700
     65 H26         77.6920    38.0590     7.6200 hc         1 ZLM       0.046700
     66 H27         77.3540    39.5720     6.7700 hc         1 ZLM       0.046700
     67 H28         74.4030    34.3840     3.1660 ha         1 ZLM       0.104000
     68 H29         73.7470    37.9360     0.8310 ha         1 ZLM       0.126000
     69 H30         74.5660    33.3580     1.2110 hn         1 ZLM       0.349000
     70 H31         72.7750    36.5340    -0.8390 h4         1 ZLM       0.041100
     71 H33         73.8050    32.1170    -2.2490 h1         1 ZLM       0.104700
     72 H34         73.0430    30.1580    -0.9830 hc         1 ZLM       0.040700
     73 H35         72.9550    31.0980     0.4970 hc         1 ZLM       0.040700
     74 H36         68.1650    28.9000    -0.6830 hc         1 ZLM       0.042200
     75 H37         68.2110    29.6450     0.8900 hc         1 ZLM       0.042200
     76 H38         66.6370    31.3640     1.2580 ho         1 ZLM       0.453000
     77 H39         66.2870    29.7760    -2.1780 ho         1 ZLM       0.453000
     78 H40         64.5630    29.3290    -0.0670 hc         1 ZLM       0.053200
     79 H41         65.8230    28.1720    -0.4560 hc         1 ZLM       0.053200
     80 H42         65.0160    27.8750     1.8690 hc         1 ZLM       0.034700
     81 H43         66.7110    28.3260     1.8890 hc         1 ZLM       0.034700
     82 H44         65.4700    29.5170     2.2800 hc         1 ZLM       0.034700
     83 H45         75.2590    30.9340    -0.0440 hn         1 ZLM       0.310500
     84 H46         79.5280    30.7730    -1.4000 hc         1 ZLM       0.084700
     85 H47         78.8890    32.1770    -2.3710 hc         1 ZLM       0.084700
     86 H48         77.6380    32.2280     2.3600 h1         1 ZLM       0.028200
     87 H49         79.1790    32.3280     3.2070 h1         1 ZLM       0.028200
     88 C6          71.4060    31.5490    -0.9260 c3         1 ZLM      -0.073400
     89 C26         75.5960    38.6010     7.5900 c3         1 ZLM       0.093000
@<TRIPOS>BOND
     1     1     7 1   
     2     1    13 1   
     3     1    40 1   
     4     2    17 1   
     5     2    21 1   
     6     2    89 1   
     7     3     4 1   
     8     3    31 1   
     9     3    41 1   
    10     3    42 1   
    11     4    43 1   
    12     4    44 1   
    13     4    88 1   
    14     5    12 1   
    15     5    38 1   
    16     5    39 1   
    17     5    47 1   
    18     6    13 1   
    19     6    38 1   
    20     6    48 1   
    21     6    49 1   
    22     7    14 1   
    23     7    50 1   
    24     7    51 1   
    25     8     9 1   
    26     8    26 1   
    27     8    27 2   
    28     9    24 ar  
    29     9    25 ar  
    30    10    17 2   
    31    10    23 1   
    32    10    52 1   
    33    11    31 1   
    34    11    32 1   
    35    11    33 1   
    36    11    34 1   
    37    12    36 1   
    38    12    37 2   
    39    13    55 1   
    40    13    56 1   
    41    14    57 1   
    42    14    58 1   
    43    14    59 1   
    44    15    38 1   
    45    15    40 1   
    46    15    60 1   
    47    15    61 1   
    48    16    26 1   
    49    16    28 2   
    50    16    29 1   
    51    17    62 1   
    52    18    19 ar  
    53    18    25 ar  
    54    18    63 1   
    55    19    21 1   
    56    19    23 ar  
    57    20    21 2   
    58    22    64 1   
    59    22    65 1   
    60    22    66 1   
    61    22    89 1   
    62    23    24 ar  
    63    24    67 1   
    64    25    68 1   
    65    26    69 1   
    66    27    28 1   
    67    27    70 1   
    68    29    30 1   
    69    29    36 1   
    70    29    71 1   
    71    30    72 1   
    72    30    73 1   
    73    30    88 1   
    74    31    74 1   
    75    31    75 1   
    76    32    76 1   
    77    33    77 1   
    78    34    35 1   
    79    34    78 1   
    80    34    79 1   
    81    35    80 1   
    82    35    81 1   
    83    35    82 1   
    84    36    83 1   
    85    38    39 1   
    86    39    84 1   
    87    39    85 1   
    88    40    86 1   
    89    40    87 1   
    90    45    88 1   
    91    46    88 1   
    92    53    89 1   
    93    54    89 1   
@<TRIPOS>SUBSTRUCTURE
     1 ZLM         1 TEMP              0 ****  ****    0 ROOT
