@<TRIPOS>MOLECULE
ZLM
   89    93     1     0     0
SMALL
No Charge or Current Charge


@<TRIPOS>ATOM
      1 N1          78.3800    34.2560     1.5210 n3         1 ZLM      -0.715600
      2 N3          75.0650    37.9390     6.8580 n          1 ZLM      -0.292000
      3 C4          69.1100    30.8680    -0.5630 c3         1 ZLM      -0.069400
      4 C5          70.5610    30.4860    -0.1960 c3         1 ZLM      -0.077400
      5 C10         77.7890    31.0110    -0.9020 cx         1 ZLM      -0.248700
      6 C13         78.3830    33.6210    -0.9220 c6         1 ZLM      -0.053400
      7 C15         77.6550    34.9830     2.5930 c3         1 ZLM       0.165800
      8 C20         74.0220    35.2450     0.9770 cc         1 ZLM      -0.173000
      9 C21         74.2080    36.1200     2.1400 ca         1 ZLM       0.045000
     10 C24         74.6780    35.7460     5.8670 cc         1 ZLM      -0.272200
     11 C2          66.5800    30.1440    -0.3670 c3         1 ZLM       0.414000
     12 C9          76.4510    31.3220    -1.5270 c          1 ZLM       0.633100
     13 C14         77.6280    34.3160     0.2360 c6         1 ZLM       0.169800
     14 C16         78.4500    35.1890     3.8970 c3         1 ZLM      -0.089100
     15 C18         79.4990    32.1200     0.7600 c6         1 ZLM      -0.053400
     16 C19         73.9550    33.5110    -0.3960 cc         1 ZLM       0.400800
     17 C25         74.9290    36.5530     6.9580 cd         1 ZLM      -0.034400
     18 C29         74.5660    38.3280     3.1250 ca         1 ZLM      -0.037000
     19 C30         74.6830    37.7540     4.4080 ca         1 ZLM      -0.172600
     20 O3          75.0770    39.8240     5.5160 o          1 ZLM      -0.552000
     21 C31         74.9530    38.6080     5.6150 c          1 ZLM       0.571600
     22 C27         76.8160    38.7400     8.4780 c3         1 ZLM      -0.112100
     23 C23         74.5520    36.3650     4.5550 ca         1 ZLM       0.023200
     24 C22         74.3100    35.5590     3.4290 ca         1 ZLM      -0.141000
     25 C28         74.3330    37.5170     2.0020 ca         1 ZLM      -0.124000
     26 N2          74.0480    33.8710     0.9280 na         1 ZLM      -0.285500
     27 C32         73.8560    35.6750    -0.3160 cd         1 ZLM       0.270900
     28 N4          73.8220    34.5840    -1.1660 nd         1 ZLM      -0.658000
     29 C8          74.1240    32.0860    -0.8960 c3         1 ZLM       0.089400
     30 C7          73.0560    31.1080    -0.3500 c3         1 ZLM      -0.084400
     31 C3          68.0680    29.8440    -0.0340 c3         1 ZLM      -0.139400
     32 O1          66.1960    31.3680     0.2090 oh         1 ZLM      -0.641500
     33 O           66.4340    30.3260    -1.7530 oh         1 ZLM      -0.641500
     34 C1          65.6010    29.0300     0.0880 c3         1 ZLM      -0.134400
     35 C           65.5860    28.7240     1.6060 c3         1 ZLM      -0.088100
     36 N           75.4750    31.5760    -0.5970 ns         1 ZLM      -0.525900
     37 O2          76.2570    31.3560    -2.7330 o          1 ZLM      -0.581100
     38 C12         78.7290    32.1600    -0.5710 cx         1 ZLM      -0.070000
     39 C11         79.0750    31.2040    -1.6900 cx         1 ZLM      -0.078400
     40 C17         78.7120    32.8440     1.8840 c6         1 ZLM       0.169800
     41 H2          68.8950    31.8640    -0.1570 hc         1 ZLM       0.055700
     42 H3          69.0310    30.9440    -1.6550 hc         1 ZLM       0.055700
     43 H4          70.7860    29.4920    -0.6040 hc         1 ZLM       0.031700
     44 H5          70.6490    30.4110     0.8950 hc         1 ZLM       0.031700
     45 H6          71.3750    32.4890    -0.3130 hc         1 ZLM       0.057700
     46 H7          71.5190    31.5700    -1.8120 hc         1 ZLM       0.057700
     47 H8          77.7750    30.1670    -0.2180 hc         1 ZLM       0.077700
     48 H9          79.3110    34.1690    -1.1310 hc         1 ZLM       0.060700
     49 H10         77.7840    33.6740    -1.8410 hc         1 ZLM       0.060700
     50 H11         77.3690    35.9790     2.2260 h1         1 ZLM       0.030200
     51 H12         76.7250    34.4530     2.8350 h1         1 ZLM       0.030200
     52 H13         74.5810    34.6720     6.0020 ha         1 ZLM       0.195000
     53 H14         74.9790    39.7640     7.9550 h1         1 ZLM       0.061700
     54 H15         74.7440    38.3040     8.9100 h1         1 ZLM       0.061700
     55 H16         77.4370    35.3620    -0.0460 h1         1 ZLM       0.028200
     56 H17         76.6510    33.8330     0.3560 h1         1 ZLM       0.028200
     57 H18         77.8810    35.8280     4.5830 hc         1 ZLM       0.036033
     58 H19         78.6380    34.2360     4.4050 hc         1 ZLM       0.036033
     59 H20         79.4110    35.6750     3.6920 hc         1 ZLM       0.036033
     60 H21         79.6980    31.0820     1.0570 hc         1 ZLM       0.060700
     61 H22         80.4780    32.6010     0.6280 hc         1 ZLM       0.060700
     62 H23         75.0400    36.1730     7.9710 h4         1 ZLM       0.197000
     63 H24         74.6660    39.4040     2.9930 ha         1 ZLM       0.139000
     64 H25         76.9640    39.3270     9.3910 hc         1 ZLM       0.046700
     65 H26         77.1750    37.7210     8.6600 hc         1 ZLM       0.046700
     66 H27         77.4220    39.1840     7.6790 hc         1 ZLM       0.046700
     67 H28         74.2190    34.4860     3.5620 ha         1 ZLM       0.104000
     68 H29         74.2670    37.9890     1.0270 ha         1 ZLM       0.126000
     69 H30         74.1700    33.2330     1.7030 hn         1 ZLM       0.349000
     70 H31         73.7890    36.6870    -0.6950 h4         1 ZLM       0.041100
     71 H33         74.0020    32.1210    -1.9870 h1         1 ZLM       0.104700
     72 H34         73.2640    30.1060    -0.7450 hc         1 ZLM       0.040700
     73 H35         73.1470    31.0420     0.7420 hc         1 ZLM       0.040700
     74 H36         68.3190    28.8550    -0.4360 hc         1 ZLM       0.042200
     75 H37         68.1840    29.7720     1.0540 hc         1 ZLM       0.042200
     76 H38         66.9850    31.9400     0.1380 ho         1 ZLM       0.453000
     77 H39         65.4800    30.2020    -1.9310 ho         1 ZLM       0.453000
     78 H40         64.5810    29.3020    -0.2130 hc         1 ZLM       0.053200
     79 H41         65.8430    28.1030    -0.4480 hc         1 ZLM       0.053200
     80 H42         64.8200    27.9720     1.8320 hc         1 ZLM       0.034700
     81 H43         66.5520    28.3270     1.9400 hc         1 ZLM       0.034700
     82 H44         65.3580    29.6250     2.1880 hc         1 ZLM       0.034700
     83 H45         75.7590    31.4940     0.3710 hn         1 ZLM       0.310500
     84 H46         79.8840    30.4960    -1.5230 hc         1 ZLM       0.084700
     85 H47         79.0040    31.5680    -2.7130 hc         1 ZLM       0.084700
     86 H48         77.7900    32.2810     2.0910 h1         1 ZLM       0.028200
     87 H49         79.3220    32.8120     2.7970 h1         1 ZLM       0.028200
     88 C6          71.6050    31.4960    -0.7200 c3         1 ZLM      -0.073400
     89 C26         75.3270    38.7310     8.0840 c3         1 ZLM       0.093000
@<TRIPOS>BOND
     1     1     7 1   
     2     1    13 1   
     3     1    40 1   
     4     2    17 1   
     5     2    21 1   
     6     2    89 1   
     7     3     4 1   
     8     3    31 1   
     9     3    41 1   
    10     3    42 1   
    11     4    43 1   
    12     4    44 1   
    13     4    88 1   
    14     5    12 1   
    15     5    38 1   
    16     5    39 1   
    17     5    47 1   
    18     6    13 1   
    19     6    38 1   
    20     6    48 1   
    21     6    49 1   
    22     7    14 1   
    23     7    50 1   
    24     7    51 1   
    25     8     9 1   
    26     8    26 1   
    27     8    27 2   
    28     9    24 ar  
    29     9    25 ar  
    30    10    17 2   
    31    10    23 1   
    32    10    52 1   
    33    11    31 1   
    34    11    32 1   
    35    11    33 1   
    36    11    34 1   
    37    12    36 1   
    38    12    37 2   
    39    13    55 1   
    40    13    56 1   
    41    14    57 1   
    42    14    58 1   
    43    14    59 1   
    44    15    38 1   
    45    15    40 1   
    46    15    60 1   
    47    15    61 1   
    48    16    26 1   
    49    16    28 2   
    50    16    29 1   
    51    17    62 1   
    52    18    19 ar  
    53    18    25 ar  
    54    18    63 1   
    55    19    21 1   
    56    19    23 ar  
    57    20    21 2   
    58    22    64 1   
    59    22    65 1   
    60    22    66 1   
    61    22    89 1   
    62    23    24 ar  
    63    24    67 1   
    64    25    68 1   
    65    26    69 1   
    66    27    28 1   
    67    27    70 1   
    68    29    30 1   
    69    29    36 1   
    70    29    71 1   
    71    30    72 1   
    72    30    73 1   
    73    30    88 1   
    74    31    74 1   
    75    31    75 1   
    76    32    76 1   
    77    33    77 1   
    78    34    35 1   
    79    34    78 1   
    80    34    79 1   
    81    35    80 1   
    82    35    81 1   
    83    35    82 1   
    84    36    83 1   
    85    38    39 1   
    86    39    84 1   
    87    39    85 1   
    88    40    86 1   
    89    40    87 1   
    90    45    88 1   
    91    46    88 1   
    92    53    89 1   
    93    54    89 1   
@<TRIPOS>SUBSTRUCTURE
     1 ZLM         1 TEMP              0 ****  ****    0 ROOT
