@<TRIPOS>MOLECULE
ZLP
   91    95     1     0     0
SMALL
abcg2


@<TRIPOS>ATOM
      1 CAA         18.7830    14.6130     4.4440 c3         1 ZLP       0.131100
      2 CAB          5.1280    22.7350     6.2530 c3         1 ZLP       0.147900
      3 CAC         13.3630    22.2850     7.8100 c3         1 ZLP      -0.091600
      4 CAD         15.7280    21.7030     8.4730 c3         1 ZLP      -0.091600
      5 OAE         10.5210    24.1560     6.2510 o          1 ZLP      -0.532000
      6 OAF         12.8730    21.2110     2.9380 o          1 ZLP      -0.541000
      7 OAG         12.8300    19.7120     4.9260 o          1 ZLP      -0.541000
      8 OAH         14.7790    25.3020     4.0500 oh         1 ZLP      -0.672000
      9 CAK          8.1410    24.3250     1.6720 ca         1 ZLP      -0.106000
     10 CAL          8.9130    25.4500     1.4080 ca         1 ZLP      -0.114000
     11 CAM          8.7320    23.2120     2.2640 ca         1 ZLP      -0.114000
     12 CAN         10.2650    25.4610     1.7370 ca         1 ZLP      -0.103000
     13 CAO         10.0840    23.2250     2.5860 ca         1 ZLP      -0.103000
     14 CAP         15.5180    20.0620     2.1850 ca         1 ZLP       0.004000
     15 CAQ         16.6230    19.3900     1.6650 ca         1 ZLP      -0.146000
     16 CAR         15.3750    18.5210     4.0830 ca         1 ZLP       0.013000
     17 CAS          4.2440    24.5300     4.9250 c3         1 ZLP       0.158600
     18 CAT          5.3000    25.6140     4.9860 c3         1 ZLP       0.118600
     19 CAU          7.7280    27.1500     4.1990 c5         1 ZLP       0.118600
     20 CAV          9.2800    27.8000     7.6990 c5         1 ZLP       0.150600
     21 CAW         12.3310    24.3740     2.6960 c3         1 ZLP      -0.042100
     22 CAX         14.9920    21.3270     6.1310 c3         1 ZLP       0.204800
     23 CAY         14.7510    22.9570     4.2520 c3         1 ZLP       0.213800
     24 NAZ         18.1180    17.4050     2.1600 na         1 ZLP      -0.384600
     25 NBA         18.9450    15.4920     3.2900 n2         1 ZLP      -0.668900
     26 NBB         11.8660    25.3880     4.8700 ns         1 ZLP      -0.499900
     27 OBC          4.1370    23.7450     6.1060 os         1 ZLP      -0.470000
     28 OBD          6.5840    25.0270     4.7980 os         1 ZLP      -0.459000
     29 OBE          7.0980    28.1320     5.0430 os         1 ZLP      -0.444000
     30 OBF          8.4900    28.6240     6.8390 os         1 ZLP      -0.464000
     31 OBG         10.2950    26.4110     6.0520 os         1 ZLP      -0.464100
     32 OBH         17.1030    16.7640     4.0360 os         1 ZLP      -0.344700
     33 CBI         10.8700    25.2160     5.7600 c          1 ZLP       0.631100
     34 CBJ         10.8700    24.3510     2.3250 ca         1 ZLP      -0.089300
     35 CBK         14.9090    19.6360     3.3670 ca         1 ZLP      -0.334500
     36 CBL         18.1450    16.4560     3.1640 cc         1 ZLP       0.681100
     37 CBM         17.0870    18.2910     2.3690 ca         1 ZLP       0.033800
     38 CBN         16.4600    17.8810     3.5490 ca         1 ZLP       0.027100
     39 CBO         14.8200    22.2240     7.3580 c3         1 ZLP      -0.063700
     40 CBP         14.0190    24.2440     4.6360 c3         1 ZLP       0.157300
     41 CBQ         12.5440    24.2790     4.2120 c3         1 ZLP       0.098700
     42 CBR          7.7230    25.8520     5.0030 c5         1 ZLP       0.163300
     43 CBS          9.2620    26.4240     7.0560 c5         1 ZLP       0.166300
     44 NBT         14.2260    21.7740     4.9490 n3         1 ZLP      -0.744500
     45 CBU          7.3910    27.8360     6.3790 c5         1 ZLP       0.367300
     46 CBV          7.8450    26.3580     6.4530 c5         1 ZLP      -0.180700
     47 HAA         19.5360    13.8280     4.3960 h1         1 ZLP       0.045033
     48 HAAA        18.9100    15.1530     5.3870 h1         1 ZLP       0.045033
     49 HAAB        17.7960    14.1400     4.4620 h1         1 ZLP       0.045033
     50 HAB          4.8140    22.1030     7.0830 h1         1 ZLP       0.034033
     51 HABA         5.2010    22.1270     5.3450 h1         1 ZLP       0.034033
     52 HABB         6.1110    23.1590     6.4700 h1         1 ZLP       0.034033
     53 HAC         12.7090    22.6590     7.0230 hc         1 ZLP       0.040867
     54 HACA        13.0120    21.2880     8.0940 hc         1 ZLP       0.040867
     55 HACB        13.2570    22.9390     8.6780 hc         1 ZLP       0.040867
     56 HAD         16.7730    21.6790     8.1570 hc         1 ZLP       0.040867
     57 HADA        15.6560    22.3420     9.3560 hc         1 ZLP       0.040867
     58 HADB        15.4390    20.6900     8.7670 hc         1 ZLP       0.040867
     59 HOAH        14.5120    26.1360     4.4550 ho         1 ZLP       0.451000
     60 HAK          7.0860    24.3170     1.4290 ha         1 ZLP       0.112000
     61 HAL          8.4620    26.3240     0.9560 ha         1 ZLP       0.113000
     62 HAM          8.1370    22.3320     2.4780 ha         1 ZLP       0.113000
     63 HAN         10.8610    26.3440     1.5380 ha         1 ZLP       0.118500
     64 HAO         10.5370    22.3550     3.0430 ha         1 ZLP       0.118500
     65 HAP         15.1190    20.9150     1.6570 ha         1 ZLP       0.136000
     66 HAQ         17.0910    19.7130     0.7450 ha         1 ZLP       0.133000
     67 HAR         14.8970    18.1830     4.9900 ha         1 ZLP       0.157000
     68 HAS          3.2720    25.0110     4.7980 h1         1 ZLP       0.052700
     69 HASA         4.4270    23.8850     4.0570 h1         1 ZLP       0.052700
     70 HAT          5.0970    26.3510     4.2000 h1         1 ZLP       0.038700
     71 HATA         5.2360    26.1220     5.9540 h1         1 ZLP       0.038700
     72 HAUA         8.7560    27.4430     3.9740 h1         1 ZLP       0.067700
     73 HAV         10.2800    28.2230     7.7650 h1         1 ZLP       0.064700
     74 HAVA         8.8370    27.7480     8.6990 h1         1 ZLP       0.064700
     75 HAW         12.8480    23.5400     2.2220 hc         1 ZLP       0.066700
     76 HAWA        12.7880    25.2940     2.3310 hc         1 ZLP       0.066700
     77 HAX         16.0510    21.2640     5.8600 h1         1 ZLP       0.051200
     78 HAXA        14.6530    20.3270     6.3920 h1         1 ZLP       0.051200
     79 HAY         14.6980    22.8160     3.1750 h1         1 ZLP       0.063700
     80 HAYA        15.8040    23.0750     4.5140 h1         1 ZLP       0.063700
     81 HNAZ        18.7690    17.4080     1.3910 hn         1 ZLP       0.384000
     82 HNBB        11.9770    26.3150     4.4870 hn         1 ZLP       0.322500
     83 HBO         15.1560    23.2330     7.1030 hc         1 ZLP       0.045700
     84 HBP         14.0360    24.3450     5.7230 h1         1 ZLP       0.055700
     85 HBQ         12.0790    23.3710     4.5900 h1         1 ZLP       0.099700
     86 HBR          8.5570    25.2190     4.7160 h1         1 ZLP       0.105700
     87 HBS          9.4490    25.6190     7.7610 h1         1 ZLP       0.089700
     88 HBU          6.5060    28.0730     6.9740 h2         1 ZLP       0.084700
     89 HBV          7.2080    25.7730     7.1120 hc         1 ZLP       0.093700
     90 SBW         13.5680    20.5740     4.0320 sy         1 ZLP       1.193600
     91 HAU          7.1610    27.0860     3.2730 h1         1 ZLP       0.067700
@<TRIPOS>BOND
     1     1    25 1   
     2     1    47 1   
     3     1    48 1   
     4     1    49 1   
     5     2    27 1   
     6     2    50 1   
     7     2    51 1   
     8     2    52 1   
     9     3    39 1   
    10     3    53 1   
    11     3    54 1   
    12     3    55 1   
    13     4    39 1   
    14     4    56 1   
    15     4    57 1   
    16     4    58 1   
    17     5    33 2   
    18     6    90 2   
    19     7    90 2   
    20     8    40 1   
    21     8    59 1   
    22     9    10 ar  
    23     9    11 ar  
    24     9    60 1   
    25    10    12 ar  
    26    10    61 1   
    27    11    13 ar  
    28    11    62 1   
    29    12    34 ar  
    30    12    63 1   
    31    13    34 ar  
    32    13    64 1   
    33    14    15 ar  
    34    14    35 ar  
    35    14    65 1   
    36    15    37 ar  
    37    15    66 1   
    38    16    35 ar  
    39    16    38 ar  
    40    16    67 1   
    41    17    18 1   
    42    17    27 1   
    43    17    68 1   
    44    17    69 1   
    45    18    28 1   
    46    18    70 1   
    47    18    71 1   
    48    19    29 1   
    49    19    42 1   
    50    19    72 1   
    51    19    91 1   
    52    20    30 1   
    53    20    43 1   
    54    20    73 1   
    55    20    74 1   
    56    21    34 1   
    57    21    41 1   
    58    21    75 1   
    59    21    76 1   
    60    22    39 1   
    61    22    44 1   
    62    22    77 1   
    63    22    78 1   
    64    23    40 1   
    65    23    44 1   
    66    23    79 1   
    67    23    80 1   
    68    24    36 1   
    69    24    37 1   
    70    24    81 1   
    71    25    36 2   
    72    26    33 1   
    73    26    41 1   
    74    26    82 1   
    75    28    42 1   
    76    29    45 1   
    77    30    45 1   
    78    31    33 1   
    79    31    43 1   
    80    32    36 1   
    81    32    38 1   
    82    35    90 1   
    83    37    38 ar  
    84    39    83 1   
    85    40    41 1   
    86    40    84 1   
    87    41    85 1   
    88    42    46 1   
    89    42    86 1   
    90    43    46 1   
    91    43    87 1   
    92    44    90 1   
    93    45    46 1   
    94    45    88 1   
    95    46    89 1   
@<TRIPOS>SUBSTRUCTURE
     1 ZLP         1 TEMP              0 ****  ****    0 ROOT
