@<TRIPOS>MOLECULE
ZLP
   91    95     1     0     0
SMALL
No Charge or Current Charge


@<TRIPOS>ATOM
      1 CAA         18.5770    14.8390     4.5420 c3         1 ZLP       0.131100
      2 CAB          9.3710    22.1300     5.7330 c3         1 ZLP       0.147900
      3 CAC         12.5970    22.3500     8.1070 c3         1 ZLP      -0.091600
      4 CAD         14.7940    21.2060     8.6880 c3         1 ZLP      -0.091600
      5 OAE         11.0160    25.1840     6.7670 o          1 ZLP      -0.532000
      6 OAF         11.9290    21.0680     2.9630 o          1 ZLP      -0.541000
      7 OAG         11.8130    19.3680     4.8510 o          1 ZLP      -0.541000
      8 OAH         14.5950    24.9610     4.4280 oh         1 ZLP      -0.672000
      9 CAK          8.2750    25.7020     1.1350 ca         1 ZLP      -0.106000
     10 CAL          9.3410    26.6170     1.1390 ca         1 ZLP      -0.114000
     11 CAM          8.4770    24.3900     1.5940 ca         1 ZLP      -0.114000
     12 CAN         10.6070    26.2210     1.6050 ca         1 ZLP      -0.103000
     13 CAO          9.7420    23.9950     2.0640 ca         1 ZLP      -0.103000
     14 CAP         14.6970    20.0100     2.2520 ca         1 ZLP       0.004000
     15 CAQ         15.8810    19.4050     1.7790 ca         1 ZLP      -0.146000
     16 CAR         14.6450    18.4650     4.1700 ca         1 ZLP       0.013000
     17 CAS          7.0390    22.4740     5.0570 c3         1 ZLP       0.158600
     18 CAT          6.9130    23.9570     5.5020 c3         1 ZLP       0.118600
     19 CAU          6.6010    26.8190     4.6050 c5         1 ZLP       0.118600
     20 CAV          8.9870    28.9220     6.6490 c5         1 ZLP       0.150600
     21 CAW         12.1740    24.4830     2.6240 c3         1 ZLP      -0.042100
     22 CAX         13.8020    20.9190     6.3530 c3         1 ZLP       0.204800
     23 CAY         13.9920    22.5740     4.4970 c3         1 ZLP       0.213800
     24 NAZ         17.5250    17.5920     2.2990 na         1 ZLP      -0.384600
     25 NBA         18.4940    15.8180     3.4500 n2         1 ZLP      -0.668900
     26 NBB         11.7420    25.7680     4.6680 ns         1 ZLP      -0.499900
     27 OBC          7.9890    21.7540     5.8820 os         1 ZLP      -0.470000
     28 OBD          7.9420    24.7410     4.8430 os         1 ZLP      -0.459000
     29 OBE          6.0010    27.2020     5.8620 os         1 ZLP      -0.444000
     30 OBF          7.6210    28.8440     6.1930 os         1 ZLP      -0.464000
     31 OBG         10.4900    27.2030     5.7730 os         1 ZLP      -0.464100
     32 OBH         16.5100    16.8360     4.2380 os         1 ZLP      -0.344700
     33 CBI         11.0810    25.9750     5.8410 c          1 ZLP       0.631100
     34 CBJ         10.8140    24.9080     2.0750 ca         1 ZLP      -0.089300
     35 CBK         14.0830    19.5490     3.4480 ca         1 ZLP      -0.334500
     36 CBL         17.5560    16.7010     3.3400 cc         1 ZLP       0.681100
     37 CBM         16.4120    18.3470     2.5220 ca         1 ZLP       0.033800
     38 CBN         15.8200    17.8870     3.6750 ca         1 ZLP       0.027100
     39 CBO         13.9650    21.8720     7.5660 c3         1 ZLP      -0.063700
     40 CBP         13.5580    24.0390     4.8200 c3         1 ZLP       0.157300
     41 CBQ         12.1980    24.4600     4.1780 c3         1 ZLP       0.098700
     42 CBR          7.9850    26.1970     4.9900 c5         1 ZLP       0.163300
     43 CBS          9.4760    27.4430     6.7840 c5         1 ZLP       0.166300
     44 NBT         13.1670    21.5050     5.1400 n3         1 ZLP      -0.744500
     45 CBU          7.0700    27.6270     6.7220 c5         1 ZLP       0.367300
     46 CBV          8.1820    26.5800     6.5130 c5         1 ZLP      -0.180700
     47 HAA         19.4580    14.1950     4.4230 h1         1 ZLP       0.045033
     48 HAAA        18.6550    15.3400     5.5160 h1         1 ZLP       0.045033
     49 HAAB        17.6880    14.1940     4.5630 h1         1 ZLP       0.045033
     50 HAB         10.0150    21.4570     6.3140 h1         1 ZLP       0.034033
     51 HABA         9.6820    22.0740     4.6820 h1         1 ZLP       0.034033
     52 HABB         9.5430    23.1500     6.0950 h1         1 ZLP       0.034033
     53 HAC         11.9990    22.8020     7.3090 hc         1 ZLP       0.040867
     54 HACA        12.0260    21.5100     8.5190 hc         1 ZLP       0.040867
     55 HACB        12.7310    23.0980     8.8970 hc         1 ZLP       0.040867
     56 HAD         15.7850    20.9150     8.3180 hc         1 ZLP       0.040867
     57 HADA        14.9380    21.8980     9.5270 hc         1 ZLP       0.040867
     58 HADB        14.2920    20.3080     9.0670 hc         1 ZLP       0.040867
     59 HOAH        14.2640    25.8600     4.6470 ho         1 ZLP       0.451000
     60 HAK          7.2950    26.0090     0.7760 ha         1 ZLP       0.112000
     61 HAL          9.1870    27.6330     0.7820 ha         1 ZLP       0.113000
     62 HAM          7.6520    23.6810     1.5940 ha         1 ZLP       0.113000
     63 HAN         11.4250    26.9390     1.6060 ha         1 ZLP       0.118500
     64 HAO          9.8860    22.9800     2.4250 ha         1 ZLP       0.118500
     65 HAP         14.2620    20.8330     1.6860 ha         1 ZLP       0.136000
     66 HAQ         16.3610    19.7500     0.8660 ha         1 ZLP       0.133000
     67 HAR         14.1900    18.0840     5.0820 ha         1 ZLP       0.157000
     68 HAS          6.0500    22.0070     5.1570 h1         1 ZLP       0.052700
     69 HASA         7.3160    22.4250     3.9960 h1         1 ZLP       0.052700
     70 HAT          5.9140    24.3070     5.2160 h1         1 ZLP       0.038700
     71 HATA         6.9870    24.0120     6.5950 h1         1 ZLP       0.038700
     72 HAUA         6.7420    27.7200     3.9920 h1         1 ZLP       0.067700
     73 HAV          9.5820    29.5070     5.9360 h1         1 ZLP       0.064700
     74 HAVA         9.0070    29.4310     7.6210 h1         1 ZLP       0.064700
     75 HAW         12.4310    23.4970     2.2260 hc         1 ZLP       0.066700
     76 HAWA        12.9550    25.1620     2.2580 hc         1 ZLP       0.066700
     77 HAX         14.7930    20.5240     6.0890 h1         1 ZLP       0.051200
     78 HAXA        13.2170    20.0640     6.7180 h1         1 ZLP       0.051200
     79 HAY         14.0050    22.4720     3.4060 h1         1 ZLP       0.063700
     80 HAYA        15.0410    22.4590     4.8010 h1         1 ZLP       0.063700
     81 HNAZ        18.1940    17.6510     1.5480 hn         1 ZLP       0.384000
     82 HNBB        11.6650    26.5250     4.0020 hn         1 ZLP       0.322500
     83 HBO         14.5340    22.7510     7.2440 hc         1 ZLP       0.045700
     84 HBP         13.4260    24.1050     5.9060 h1         1 ZLP       0.055700
     85 HBQ         11.4560    23.7170     4.5000 h1         1 ZLP       0.099700
     86 HBR          8.7570    26.5910     4.3160 h1         1 ZLP       0.105700
     87 HBS          9.8940    27.2730     7.7870 h1         1 ZLP       0.089700
     88 HBU          6.7570    27.7400     7.7700 h2         1 ZLP       0.084700
     89 HBV          8.0980    25.7440     7.2100 hc         1 ZLP       0.093700
     90 SBW         12.5770    20.3290     4.0490 sy         1 ZLP       1.193600
     91 HAU          5.9420    26.1370     4.0540 h1         1 ZLP       0.067700
@<TRIPOS>BOND
     1     1    25 1   
     2     1    47 1   
     3     1    48 1   
     4     1    49 1   
     5     2    27 1   
     6     2    50 1   
     7     2    51 1   
     8     2    52 1   
     9     3    39 1   
    10     3    53 1   
    11     3    54 1   
    12     3    55 1   
    13     4    39 1   
    14     4    56 1   
    15     4    57 1   
    16     4    58 1   
    17     5    33 2   
    18     6    90 2   
    19     7    90 2   
    20     8    40 1   
    21     8    59 1   
    22     9    10 ar  
    23     9    11 ar  
    24     9    60 1   
    25    10    12 ar  
    26    10    61 1   
    27    11    13 ar  
    28    11    62 1   
    29    12    34 ar  
    30    12    63 1   
    31    13    34 ar  
    32    13    64 1   
    33    14    15 ar  
    34    14    35 ar  
    35    14    65 1   
    36    15    37 ar  
    37    15    66 1   
    38    16    35 ar  
    39    16    38 ar  
    40    16    67 1   
    41    17    18 1   
    42    17    27 1   
    43    17    68 1   
    44    17    69 1   
    45    18    28 1   
    46    18    70 1   
    47    18    71 1   
    48    19    29 1   
    49    19    42 1   
    50    19    72 1   
    51    19    91 1   
    52    20    30 1   
    53    20    43 1   
    54    20    73 1   
    55    20    74 1   
    56    21    34 1   
    57    21    41 1   
    58    21    75 1   
    59    21    76 1   
    60    22    39 1   
    61    22    44 1   
    62    22    77 1   
    63    22    78 1   
    64    23    40 1   
    65    23    44 1   
    66    23    79 1   
    67    23    80 1   
    68    24    36 1   
    69    24    37 1   
    70    24    81 1   
    71    25    36 2   
    72    26    33 1   
    73    26    41 1   
    74    26    82 1   
    75    28    42 1   
    76    29    45 1   
    77    30    45 1   
    78    31    33 1   
    79    31    43 1   
    80    32    36 1   
    81    32    38 1   
    82    35    90 1   
    83    37    38 ar  
    84    39    83 1   
    85    40    41 1   
    86    40    84 1   
    87    41    85 1   
    88    42    46 1   
    89    42    86 1   
    90    43    46 1   
    91    43    87 1   
    92    44    90 1   
    93    45    46 1   
    94    45    88 1   
    95    46    89 1   
@<TRIPOS>SUBSTRUCTURE
     1 ZLP         1 TEMP              0 ****  ****    0 ROOT
