@<TRIPOS>MOLECULE
ZLS
   85    90     1     0     0
SMALL
bcc


@<TRIPOS>ATOM
      1 O           66.5180    31.7740     0.6270 oh         1 ZLS      -0.581300
      2 O2          76.6040    32.7880    -2.2790 o          1 ZLS      -0.613100
      3 C10         77.8780    31.2020    -1.0100 cx         1 ZLS      -0.241700
      4 C11         79.0830    31.9590    -0.4760 cx         1 ZLS      -0.068000
      5 C17         79.0460    33.4580    -0.3020 c6         1 ZLS      -0.051400
      6 C16         78.4870    33.8170     1.0670 c6         1 ZLS       0.165300
      7 N1          79.2440    33.1790     2.1290 n3         1 ZLS      -0.719600
      8 C15         78.7850    33.6010     3.4300 c3         1 ZLS       0.153100
      9 C14         79.2190    31.7340     2.0000 c6         1 ZLS       0.165300
     10 C13         79.8120    31.2970     0.6690 c6         1 ZLS      -0.051400
     11 C12         79.1360    31.3410    -1.8240 cx         1 ZLS      -0.084400
     12 N           75.5190    31.4710    -0.8160 ns         1 ZLS      -0.563900
     13 C8          74.2200    32.0560    -1.0630 c3         1 ZLS       0.103400
     14 C7          73.1420    31.1460    -0.4730 c3         1 ZLS      -0.087400
     15 C6          71.7240    31.6250    -0.7470 c3         1 ZLS      -0.073400
     16 C5          70.6790    30.6550    -0.2100 c3         1 ZLS      -0.076400
     17 C4          69.2500    31.1250    -0.4490 c3         1 ZLS      -0.069400
     18 C3          68.2280    30.1340     0.0970 c3         1 ZLS      -0.138400
     19 C2          66.7620    30.5660    -0.0450 c3         1 ZLS       0.366600
     20 O1          66.4610    30.8950    -1.3780 oh         1 ZLS      -0.581300
     21 C1          65.7990    29.4720     0.4430 c3         1 ZLS      -0.134400
     22 C           65.9100    29.1230     1.9220 c3         1 ZLS      -0.089100
     23 C18         74.1350    33.4420    -0.4970 cc         1 ZLS       0.385800
     24 N3          73.6690    34.5030    -1.1850 na         1 ZLS      -0.280900
     25 C31         73.6750    35.5820    -0.3520 cc         1 ZLS      -0.240600
     26 C19         74.1600    35.1160     0.8440 cd         1 ZLS       0.360800
     27 N2          74.4400    33.7790     0.7290 nd         1 ZLS      -0.677000
     28 C20         74.3820    35.8490     2.0910 ca         1 ZLS      -0.101500
     29 C30         73.9070    37.1530     2.2520 ca         1 ZLS      -0.128000
     30 C29         74.1020    37.8580     3.4380 ca         1 ZLS      -0.112000
     31 C23         74.7620    37.2370     4.4790 ca         1 ZLS      -0.090300
     32 C24         75.1620    37.6920     5.8570 c5         1 ZLS      -0.027400
     33 C28         75.0790    36.3550     6.6170 c5         1 ZLS      -0.077400
     34 C27         75.9580    35.5910     5.6100 c5         1 ZLS      -0.027400
     35 C26         77.2430    36.4570     5.6460 c5         1 ZLS      -0.078400
     36 C25         76.6970    37.8990     5.8200 c5         1 ZLS      -0.076400
     37 C22         75.2470    35.9350     4.3280 ca         1 ZLS      -0.097300
     38 C21         75.0710    35.2390     3.1510 ca         1 ZLS      -0.086000
     39 H1          66.9710    31.7590     1.4760 ho         1 ZLS       0.414500
     40 H2          77.7100    30.2370    -0.5420 hc         1 ZLS       0.081700
     41 H3          80.0680    33.8400    -0.3850 hc         1 ZLS       0.056450
     42 H4          78.4610    33.9450    -1.0810 hc         1 ZLS       0.056450
     43 H5          78.5280    34.9000     1.2110 h1         1 ZLS       0.035700
     44 H6          77.4190    33.5330     1.1120 h1         1 ZLS       0.035700
     45 H8          79.3920    33.1430     4.2120 h1         1 ZLS       0.029367
     46 H9          78.8800    34.6840     3.5270 h1         1 ZLS       0.029367
     47 H10         77.7320    33.3400     3.6280 h1         1 ZLS       0.029367
     48 H11         78.1900    31.3410     2.0920 h1         1 ZLS       0.035700
     49 H12         79.7950    31.3000     2.8210 h1         1 ZLS       0.035700
     50 H13         79.7690    30.2080     0.5840 hc         1 ZLS       0.056450
     51 H14         80.8680    31.5810     0.6330 hc         1 ZLS       0.056450
     52 H15         79.7340    30.4500    -1.9640 hc         1 ZLS       0.082200
     53 H16         79.0930    31.9950    -2.6870 hc         1 ZLS       0.082200
     54 H17         75.5990    30.7980    -0.0690 hn         1 ZLS       0.321500
     55 H18         74.0660    32.1180    -2.1450 h1         1 ZLS       0.066700
     56 H19         73.2750    30.1450    -0.8940 hc         1 ZLS       0.053700
     57 H20         73.3000    31.0600     0.6070 hc         1 ZLS       0.053700
     58 H21         71.5630    32.6100    -0.2960 hc         1 ZLS       0.044200
     59 H22         71.5840    31.7560    -1.8250 hc         1 ZLS       0.044200
     60 H23         70.8240    29.6730    -0.6720 hc         1 ZLS       0.036700
     61 H24         70.8400    30.5110     0.8640 hc         1 ZLS       0.036700
     62 H25         69.1130    32.1040     0.0190 hc         1 ZLS       0.052200
     63 H26         69.0940    31.2720    -1.5210 hc         1 ZLS       0.052200
     64 H27         68.3540    29.1670    -0.4030 hc         1 ZLS       0.044200
     65 H28         68.4450    29.9440     1.1530 hc         1 ZLS       0.044200
     66 H29         66.5110    30.0940    -1.9100 ho         1 ZLS       0.414500
     67 H30         64.7810    29.8070     0.2260 hc         1 ZLS       0.053200
     68 H31         65.9640    28.5680    -0.1530 hc         1 ZLS       0.053200
     69 H32         65.1580    28.3820     2.1930 hc         1 ZLS       0.035367
     70 H33         66.8830    28.7020     2.1760 hc         1 ZLS       0.035367
     71 H34         65.7440    29.9940     2.5570 hc         1 ZLS       0.035367
     72 H35         73.3760    34.5030    -2.1500 hn         1 ZLS       0.306700
     73 H36         73.3560    36.5570    -0.6790 h4         1 ZLS       0.178000
     74 H38         73.3610    37.6290     1.4460 ha         1 ZLS       0.124000
     75 H39         73.7210    38.8680     3.5350 ha         1 ZLS       0.130000
     76 H40         74.6030    38.5340     6.2620 hc         1 ZLS       0.071700
     77 H41         74.0630    35.9620     6.6880 hc         1 ZLS       0.051700
     78 H42         75.5130    36.4030     7.6190 hc         1 ZLS       0.051700
     79 H43         76.1240    34.5300     5.7930 hc         1 ZLS       0.071700
     80 H44         77.8670    36.1660     6.4920 hc         1 ZLS       0.045700
     81 H45         77.8430    36.3400     4.7440 hc         1 ZLS       0.045700
     82 H46         77.0400    38.3400     6.7580 hc         1 ZLS       0.045700
     83 H47         77.0010    38.5680     5.0150 hc         1 ZLS       0.045700
     84 H48         75.4460    34.2300     3.0390 ha         1 ZLS       0.148000
     85 C9          76.6360    31.9010    -1.4350 c          1 ZLS       0.710100
@<TRIPOS>BOND
     1     1    19 1   
     2     1    39 1   
     3     2    85 2   
     4     3     4 1   
     5     3    11 1   
     6     3    40 1   
     7     3    85 1   
     8     4     5 1   
     9     4    10 1   
    10     4    11 1   
    11     5     6 1   
    12     5    41 1   
    13     5    42 1   
    14     6     7 1   
    15     6    43 1   
    16     6    44 1   
    17     7     8 1   
    18     7     9 1   
    19     8    45 1   
    20     8    46 1   
    21     8    47 1   
    22     9    10 1   
    23     9    48 1   
    24     9    49 1   
    25    10    50 1   
    26    10    51 1   
    27    11    52 1   
    28    11    53 1   
    29    12    13 1   
    30    12    54 1   
    31    12    85 1   
    32    13    14 1   
    33    13    23 1   
    34    13    55 1   
    35    14    15 1   
    36    14    56 1   
    37    14    57 1   
    38    15    16 1   
    39    15    58 1   
    40    15    59 1   
    41    16    17 1   
    42    16    60 1   
    43    16    61 1   
    44    17    18 1   
    45    17    62 1   
    46    17    63 1   
    47    18    19 1   
    48    18    64 1   
    49    18    65 1   
    50    19    20 1   
    51    19    21 1   
    52    20    66 1   
    53    21    22 1   
    54    21    67 1   
    55    21    68 1   
    56    22    69 1   
    57    22    70 1   
    58    22    71 1   
    59    23    24 1   
    60    23    27 2   
    61    24    25 1   
    62    24    72 1   
    63    25    26 2   
    64    25    73 1   
    65    26    27 1   
    66    26    28 1   
    67    28    29 ar  
    68    28    38 ar  
    69    29    30 ar  
    70    29    74 1   
    71    30    31 ar  
    72    30    75 1   
    73    31    32 1   
    74    31    37 ar  
    75    32    33 1   
    76    32    36 1   
    77    32    76 1   
    78    33    34 1   
    79    33    77 1   
    80    33    78 1   
    81    34    35 1   
    82    34    37 1   
    83    34    79 1   
    84    35    36 1   
    85    35    80 1   
    86    35    81 1   
    87    36    82 1   
    88    36    83 1   
    89    37    38 ar  
    90    38    84 1   
@<TRIPOS>SUBSTRUCTURE
     1 ZLS         1 TEMP              0 ****  ****    0 ROOT
