@<TRIPOS>MOLECULE
ZLS
   85    90     1     0     0
SMALL
No Charge or Current Charge


@<TRIPOS>ATOM
      1 O           66.5070    31.4800     0.6470 oh         1 ZLS      -0.643500
      2 O2          76.5610    32.6810    -2.8440 o          1 ZLS      -0.613100
      3 C10         78.0360    31.4260    -1.4080 cx         1 ZLS      -0.241700
      4 C11         78.9060    32.1840    -0.4170 cx         1 ZLS      -0.068000
      5 C17         78.4720    33.5490     0.1600 c6         1 ZLS      -0.051400
      6 C16         77.7440    33.3900     1.5170 c6         1 ZLS       0.165300
      7 N1          78.5700    32.6410     2.5030 n3         1 ZLS      -0.719600
      8 C15         77.9240    32.5720     3.8310 c3         1 ZLS       0.153100
      9 C14         78.9420    31.2960     1.9810 c6         1 ZLS       0.165300
     10 C13         79.7080    31.3970     0.6370 c6         1 ZLS      -0.051400
     11 C12         79.3190    32.1010    -1.8680 cx         1 ZLS      -0.084400
     12 N           75.6680    31.6780    -1.0050 ns         1 ZLS      -0.496900
     13 C8          74.3030    32.2070    -1.1390 c3         1 ZLS       0.103400
     14 C7          73.2880    31.2200    -0.5140 c3         1 ZLS      -0.087400
     15 C6          71.8100    31.6130    -0.7490 c3         1 ZLS      -0.073400
     16 C5          70.8150    30.5950    -0.1510 c3         1 ZLS      -0.076400
     17 C4          69.3380    30.9850    -0.3830 c3         1 ZLS      -0.069400
     18 C3          68.3430    29.9540     0.2190 c3         1 ZLS      -0.138400
     19 C2          66.8330    30.2620     0.0240 c3         1 ZLS       0.413000
     20 O1          66.5640    30.4620    -1.3420 oh         1 ZLS      -0.643500
     21 C1          65.8930    29.1450     0.5500 c3         1 ZLS      -0.134400
     22 C           66.0120    28.8200     2.0590 c3         1 ZLS      -0.089100
     23 C18         74.1880    33.6170    -0.5800 cc         1 ZLS       0.385800
     24 N3          73.8300    34.7210    -1.3160 na         1 ZLS      -0.280500
     25 C31         73.8970    35.8240    -0.4870 cc         1 ZLS      -0.208000
     26 C19         74.3040    35.3330     0.7300 cd         1 ZLS       0.295500
     27 N2          74.4680    33.9660     0.6650 nd         1 ZLS      -0.677000
     28 C20         74.5740    36.1060     1.9610 ca         1 ZLS      -0.101500
     29 C30         74.4160    37.5180     1.9830 ca         1 ZLS      -0.110000
     30 C29         74.6970    38.2620     3.1490 ca         1 ZLS      -0.094000
     31 C23         75.1380    37.5730     4.2850 ca         1 ZLS      -0.090300
     32 C24         75.5310    38.0890     5.6510 c5         1 ZLS      -0.027400
     33 C28         75.0870    36.8620     6.5120 c5         1 ZLS      -0.077400
     34 C27         75.7980    35.7790     5.6360 c5         1 ZLS      -0.027400
     35 C26         77.2670    36.3220     5.7130 c5         1 ZLS      -0.078400
     36 C25         77.0850    37.8950     5.7270 c5         1 ZLS      -0.076400
     37 C22         75.2930    36.2090     4.2770 ca         1 ZLS      -0.097300
     38 C21         75.0190    35.4460     3.1350 ca         1 ZLS      -0.068000
     39 H1          67.2880    32.0500     0.5120 ho         1 ZLS       0.453500
     40 H2          78.0580    30.3410    -1.3570 hc         1 ZLS       0.081700
     41 H3          79.3630    34.1760     0.3000 hc         1 ZLS       0.056450
     42 H4          77.8270    34.0890    -0.5460 hc         1 ZLS       0.056450
     43 H5          77.4970    34.3890     1.9040 h1         1 ZLS       0.035700
     44 H6          76.7950    32.8610     1.3520 h1         1 ZLS       0.035700
     45 H8          78.5780    32.0690     4.5550 h1         1 ZLS       0.029367
     46 H9          77.7120    33.5810     4.2100 h1         1 ZLS       0.029367
     47 H10         76.9770    32.0190     3.7780 h1         1 ZLS       0.029367
     48 H11         78.0400    30.6830     1.8320 h1         1 ZLS       0.035700
     49 H12         79.5760    30.7670     2.7080 h1         1 ZLS       0.035700
     50 H13         79.9390    30.3890     0.2670 hc         1 ZLS       0.056450
     51 H14         80.6720    31.8960     0.8030 hc         1 ZLS       0.056450
     52 H15         80.1620    31.4630    -2.1230 hc         1 ZLS       0.082200
     53 H16         79.2420    33.0040    -2.4700 hc         1 ZLS       0.082200
     54 H17         75.8990    31.1250    -0.1900 hn         1 ZLS       0.321500
     55 H18         74.0770    32.2590    -2.2130 h1         1 ZLS       0.066700
     56 H19         73.4590    30.2220    -0.9380 hc         1 ZLS       0.053700
     57 H20         73.4750    31.1420     0.5650 hc         1 ZLS       0.053700
     58 H21         71.6190    32.5980    -0.3070 hc         1 ZLS       0.044200
     59 H22         71.6290    31.7040    -1.8270 hc         1 ZLS       0.044200
     60 H23         71.0000    29.6080    -0.5940 hc         1 ZLS       0.036700
     61 H24         70.9980    30.5020     0.9270 hc         1 ZLS       0.036700
     62 H25         69.1620    31.9740     0.0570 hc         1 ZLS       0.052200
     63 H26         69.1630    31.0780    -1.4620 hc         1 ZLS       0.052200
     64 H27         68.5550    28.9700    -0.2190 hc         1 ZLS       0.044200
     65 H28         68.5540    29.8640     1.2920 hc         1 ZLS       0.044200
     66 H29         65.5980    30.3440    -1.4350 ho         1 ZLS       0.453500
     67 H30         64.8520    29.4240     0.3440 hc         1 ZLS       0.053200
     68 H31         66.0830    28.2250    -0.0170 hc         1 ZLS       0.053200
     69 H32         65.2650    28.0680     2.3430 hc         1 ZLS       0.035367
     70 H33         67.0010    28.4160     2.3020 hc         1 ZLS       0.035367
     71 H34         65.8400    29.7140     2.6700 hc         1 ZLS       0.035367
     72 H35         73.5850    34.7120    -2.3000 hn         1 ZLS       0.357000
     73 H36         73.6770    36.8320    -0.8150 h4         1 ZLS       0.160000
     74 H38         74.0790    38.0480     1.0960 ha         1 ZLS       0.106000
     75 H39         74.5810    39.3430     3.1630 ha         1 ZLS       0.112000
     76 H40         75.1390    39.0700     5.9470 hc         1 ZLS       0.071700
     77 H41         73.9970    36.7350     6.5360 hc         1 ZLS       0.051700
     78 H42         75.4450    36.8960     7.5480 hc         1 ZLS       0.051700
     79 H43         75.6410    34.7310     5.9180 hc         1 ZLS       0.071700
     80 H44         77.7710    35.9760     6.6240 hc         1 ZLS       0.045700
     81 H45         77.8750    35.9840     4.8660 hc         1 ZLS       0.045700
     82 H46         77.4940    38.3300     6.6470 hc         1 ZLS       0.045700
     83 H47         77.6010    38.3790     4.8890 hc         1 ZLS       0.045700
     84 H48         75.1590    34.3680     3.1590 ha         1 ZLS       0.130000
     85 C9          76.7070    31.9990    -1.8400 c          1 ZLS       0.643100
@<TRIPOS>BOND
     1     1    19 1   
     2     1    39 1   
     3     2    85 2   
     4     3     4 1   
     5     3    11 1   
     6     3    40 1   
     7     3    85 1   
     8     4     5 1   
     9     4    10 1   
    10     4    11 1   
    11     5     6 1   
    12     5    41 1   
    13     5    42 1   
    14     6     7 1   
    15     6    43 1   
    16     6    44 1   
    17     7     8 1   
    18     7     9 1   
    19     8    45 1   
    20     8    46 1   
    21     8    47 1   
    22     9    10 1   
    23     9    48 1   
    24     9    49 1   
    25    10    50 1   
    26    10    51 1   
    27    11    52 1   
    28    11    53 1   
    29    12    13 1   
    30    12    54 1   
    31    12    85 1   
    32    13    14 1   
    33    13    23 1   
    34    13    55 1   
    35    14    15 1   
    36    14    56 1   
    37    14    57 1   
    38    15    16 1   
    39    15    58 1   
    40    15    59 1   
    41    16    17 1   
    42    16    60 1   
    43    16    61 1   
    44    17    18 1   
    45    17    62 1   
    46    17    63 1   
    47    18    19 1   
    48    18    64 1   
    49    18    65 1   
    50    19    20 1   
    51    19    21 1   
    52    20    66 1   
    53    21    22 1   
    54    21    67 1   
    55    21    68 1   
    56    22    69 1   
    57    22    70 1   
    58    22    71 1   
    59    23    24 1   
    60    23    27 2   
    61    24    25 1   
    62    24    72 1   
    63    25    26 2   
    64    25    73 1   
    65    26    27 1   
    66    26    28 1   
    67    28    29 ar  
    68    28    38 ar  
    69    29    30 ar  
    70    29    74 1   
    71    30    31 ar  
    72    30    75 1   
    73    31    32 1   
    74    31    37 ar  
    75    32    33 1   
    76    32    36 1   
    77    32    76 1   
    78    33    34 1   
    79    33    77 1   
    80    33    78 1   
    81    34    35 1   
    82    34    37 1   
    83    34    79 1   
    84    35    36 1   
    85    35    80 1   
    86    35    81 1   
    87    36    82 1   
    88    36    83 1   
    89    37    38 ar  
    90    38    84 1   
@<TRIPOS>SUBSTRUCTURE
     1 ZLS         1 TEMP              0 ****  ****    0 ROOT
