@<TRIPOS>MOLECULE
ZLT
   28    29     1     0     0
SMALL
No Charge or Current Charge


@<TRIPOS>ATOM
      1 N1           7.7490    42.2850   118.1410 n          1 ZLT      -0.334800
      2 C4           6.9630    44.6390   120.8010 c          1 ZLT       0.573600
      3 C5           7.2200    42.5750   119.3960 cs         1 ZLT       0.479400
      4 C6           8.2840    43.3340   117.1940 c6         1 ZLT       0.045000
      5 C7           9.1070    42.8140   115.9890 c6         1 ZLT       0.138100
      6 C8           8.4160    40.5650   116.3140 c6         1 ZLT       0.138100
      7 N            7.2200    43.9180   119.6570 ns         1 ZLT      -0.456500
      8 C            7.7400    43.8020   124.3010 cc         1 ZLT      -0.202000
      9 O            8.2080    42.9580   122.2490 os         1 ZLT      -0.218000
     10 C1           7.1000    44.6120   123.3440 cc         1 ZLT      -0.092000
     11 C2           7.3780    44.0570   122.1210 cd         1 ZLT       0.060500
     12 C3           8.3860    42.8160   123.6070 cd         1 ZLT       0.155900
     13 C9           7.5460    40.9200   117.5450 c6         1 ZLT       0.045000
     14 O1           6.4680    45.7530   120.7010 o          1 ZLT      -0.537100
     15 O2           8.4740    41.6690   115.4000 os         1 ZLT      -0.437000
     16 S            6.4150    41.4600   120.3560 s          1 ZLT      -0.591400
     17 H1           8.9260    44.0380   117.7440 h1         1 ZLT       0.075700
     18 H2           7.4340    43.9080   116.7970 h1         1 ZLT       0.075700
     19 H3          10.1200    42.5370   116.3180 h1         1 ZLT       0.061450
     20 H4           9.2050    43.6050   115.2320 h1         1 ZLT       0.061450
     21 H5           7.9960    39.6890   115.8000 h1         1 ZLT       0.061450
     22 H6           9.4350    40.3090   116.6370 h1         1 ZLT       0.061450
     23 H7           7.3170    44.5010   118.8420 hn         1 ZLT       0.322500
     24 H9           6.5060    45.4990   123.5460 ha         1 ZLT       0.156000
     25 H10          8.9970    41.9900   123.9490 h4         1 ZLT       0.055100
     26 H11          6.4900    40.8270   117.2570 h1         1 ZLT       0.075700
     27 H12          7.7320    40.1550   118.3120 h1         1 ZLT       0.075700
     28 H8           7.7230    43.9440   125.3760 ha         1 ZLT       0.148000
@<TRIPOS>BOND
     1     1     3 1   
     2     1     4 1   
     3     1    13 1   
     4     2     7 1   
     5     2    11 1   
     6     2    14 2   
     7     3     7 1   
     8     3    16 2   
     9     4     5 1   
    10     4    17 1   
    11     4    18 1   
    12     5    15 1   
    13     5    19 1   
    14     5    20 1   
    15     6    13 1   
    16     6    15 1   
    17     6    21 1   
    18     6    22 1   
    19     7    23 1   
    20     8    10 1   
    21     8    12 2   
    22     8    28 1   
    23     9    11 1   
    24     9    12 1   
    25    10    11 2   
    26    10    24 1   
    27    12    25 1   
    28    13    26 1   
    29    13    27 1   
@<TRIPOS>SUBSTRUCTURE
     1 ZLT         1 TEMP              0 ****  ****    0 ROOT
