@<TRIPOS>MOLECULE
ZLT
   28    29     1     0     0
SMALL
abcg2


@<TRIPOS>ATOM
      1 N1           7.3610    42.4180   118.0490 n          1 ZLT      -0.334800
      2 C4           6.6590    44.6970   120.7220 c          1 ZLT       0.573600
      3 C5           6.7870    42.7590   119.2020 cs         1 ZLT       0.479400
      4 C6           8.1190    43.3360   117.2010 c6         1 ZLT       0.045000
      5 C7           9.4130    42.6750   116.7500 c6         1 ZLT       0.138100
      6 C8           8.5370    40.5530   117.0010 c6         1 ZLT       0.138100
      7 N            6.8030    44.1200   119.4720 ns         1 ZLT      -0.456500
      8 C            8.2870    43.4930   123.7700 cc         1 ZLT      -0.202000
      9 O            8.4650    43.3030   121.5670 os         1 ZLT      -0.218000
     10 C1           7.2700    44.2770   123.1660 cc         1 ZLT      -0.092000
     11 C2           7.4170    44.1120   121.8240 cd         1 ZLT       0.060500
     12 C3           8.9780    42.9290   122.7460 cd         1 ZLT       0.155900
     13 C9           7.1960    41.1000   117.4510 c6         1 ZLT       0.045000
     14 O1           6.0020    45.7030   120.8770 o          1 ZLT      -0.537100
     15 O2           9.1860    41.4400   116.1210 os         1 ZLT      -0.437000
     16 S            6.0270    41.6930   120.2420 s          1 ZLT      -0.591400
     17 H1           8.3760    44.2400   117.7470 h1         1 ZLT       0.075700
     18 H2           7.5080    43.6180   116.3380 h1         1 ZLT       0.075700
     19 H3          10.0750    42.5550   117.6190 h1         1 ZLT       0.061450
     20 H4           9.9110    43.3300   116.0350 h1         1 ZLT       0.061450
     21 H5           8.3800    39.6140   116.4700 h1         1 ZLT       0.061450
     22 H6           9.1650    40.3460   117.8780 h1         1 ZLT       0.061450
     23 H7           6.5350    44.7340   118.7110 hn         1 ZLT       0.322500
     24 H9           6.5180    44.8710   123.6600 ha         1 ZLT       0.156000
     25 H10          9.8370    42.2770   122.7160 h4         1 ZLT       0.055100
     26 H11          6.5190    41.1930   116.5960 h1         1 ZLT       0.075700
     27 H12          6.7440    40.4280   118.1750 h1         1 ZLT       0.075700
     28 H8           8.4810    43.3660   124.8220 ha         1 ZLT       0.148000
@<TRIPOS>BOND
     1     1     3 1   
     2     1     4 1   
     3     1    13 1   
     4     2     7 1   
     5     2    11 1   
     6     2    14 2   
     7     3     7 1   
     8     3    16 2   
     9     4     5 1   
    10     4    17 1   
    11     4    18 1   
    12     5    15 1   
    13     5    19 1   
    14     5    20 1   
    15     6    13 1   
    16     6    15 1   
    17     6    21 1   
    18     6    22 1   
    19     7    23 1   
    20     8    10 1   
    21     8    12 2   
    22     8    28 1   
    23     9    11 1   
    24     9    12 1   
    25    10    11 2   
    26    10    24 1   
    27    12    25 1   
    28    13    26 1   
    29    13    27 1   
@<TRIPOS>SUBSTRUCTURE
     1 ZLT         1 TEMP              0 ****  ****    0 ROOT
