@<TRIPOS>MOLECULE
ZLV
   75    78     1     0     0
SMALL
abcg2


@<TRIPOS>ATOM
      1 O1          89.9460    46.1820   -37.7700 oh         1 ZLV      -0.646500
      2 O2          84.7880    54.7710   -33.3260 os         1 ZLV      -0.384100
      3 C1          91.0220    45.4440   -35.7430 c3         1 ZLV      -0.126400
      4 C2          89.9290    46.3340   -36.3510 c3         1 ZLV       0.402000
      5 O           88.6430    45.8350   -36.0050 oh         1 ZLV      -0.646500
      6 C9          87.5080    56.1000   -37.1750 c          1 ZLV       0.601100
      7 N           88.0060    54.9670   -36.6440 ns         1 ZLV      -0.527900
      8 C10         88.1340    57.3820   -36.6550 cy         1 ZLV       0.065500
      9 C23         88.8030    58.2930   -37.7130 cy         1 ZLV      -0.089400
     10 C22         88.1030    59.4590   -36.9910 cy         1 ZLV       0.146800
     11 N1          87.2000    58.4820   -36.3390 nq         1 ZLV      -0.680600
     12 C11         86.8820    58.7120   -34.9410 c3         1 ZLV       0.160800
     13 C12         85.9770    57.6410   -34.3460 c3         1 ZLV      -0.074400
     14 C13         85.7040    57.9160   -32.8670 c3         1 ZLV      -0.071400
     15 C14         84.7100    56.9710   -32.1910 c3         1 ZLV      -0.105400
     16 C15         85.1460    55.5100   -32.1430 c3         1 ZLV       0.167600
     17 C16         83.5120    54.3150   -33.4830 ca         1 ZLV       0.137100
     18 C21         82.5060    54.5230   -32.5390 ca         1 ZLV      -0.189000
     19 C20         81.2280    54.0200   -32.7450 ca         1 ZLV      -0.077000
     20 C19         80.9390    53.3020   -33.9000 ca         1 ZLV      -0.137000
     21 C18         81.9360    53.0980   -34.8400 ca         1 ZLV      -0.069000
     22 C17         83.2360    53.5930   -34.6670 ca         1 ZLV      -0.020000
     23 C25         84.2280    53.3440   -35.7070 cc         1 ZLV      -0.147000
     24 N2          85.5490    53.7490   -35.6570 na         1 ZLV      -0.274500
     25 C26         84.1180    52.7100   -36.9300 cd         1 ZLV       0.248900
     26 N3          85.3190    52.7390   -37.5990 nd         1 ZLV      -0.667000
     27 C24         86.1610    53.3750   -36.8030 cc         1 ZLV       0.397800
     28 C8          87.6130    53.6310   -37.0780 c3         1 ZLV       0.096400
     29 C7          88.5370    52.6130   -36.3940 c3         1 ZLV      -0.083400
     30 C6          88.3040    51.1710   -36.8280 c3         1 ZLV      -0.073400
     31 C5          89.2860    50.2030   -36.1750 c3         1 ZLV      -0.075400
     32 C4          89.0750    48.7540   -36.6050 c3         1 ZLV      -0.070400
     33 C3          90.0800    47.8070   -35.9560 c3         1 ZLV      -0.131400
     34 C           91.0640    45.4190   -34.2170 c3         1 ZLV      -0.086100
     35 H1          90.8490    46.3360   -38.0770 ho         1 ZLV       0.449500
     36 H2          90.8470    44.4360   -36.1250 hc         1 ZLV       0.053700
     37 H3          91.9880    45.7760   -36.1350 hc         1 ZLV       0.053700
     38 H4          88.3420    46.2810   -35.2040 ho         1 ZLV       0.449500
     39 H5          88.7010    55.0410   -35.9170 hn         1 ZLV       0.308500
     40 H6          88.8140    57.1670   -35.8210 h1         1 ZLV       0.035700
     41 H7          88.4060    58.1130   -38.7100 hc         1 ZLV       0.070200
     42 H8          89.8900    58.2930   -37.7330 hc         1 ZLV       0.070200
     43 H9          88.7670    59.9560   -36.2730 h1         1 ZLV       0.050700
     44 H10         87.6000    60.2140   -37.5980 h1         1 ZLV       0.050700
     45 H12         87.8070    58.7810   -34.3390 h1         1 ZLV       0.029700
     46 H13         86.3880    59.6860   -34.8740 h1         1 ZLV       0.029700
     47 H14         85.0360    57.6070   -34.9030 hc         1 ZLV       0.054200
     48 H15         86.4470    56.6610   -34.4620 hc         1 ZLV       0.054200
     49 H16         86.6510    57.8840   -32.3180 hc         1 ZLV       0.037200
     50 H17         85.3260    58.9380   -32.7650 hc         1 ZLV       0.037200
     51 H18         84.5580    57.3050   -31.1610 hc         1 ZLV       0.055700
     52 H19         83.7360    57.0390   -32.6820 hc         1 ZLV       0.055700
     53 H20         84.7410    54.9970   -31.2700 h1         1 ZLV       0.053200
     54 H21         86.2320    55.4330   -32.1000 h1         1 ZLV       0.053200
     55 H22         82.7090    55.0830   -31.6390 ha         1 ZLV       0.115000
     56 H23         80.4630    54.1940   -31.9990 ha         1 ZLV       0.114000
     57 H24         79.9460    52.9060   -34.0690 ha         1 ZLV       0.119000
     58 H25         81.7090    52.5380   -35.7370 ha         1 ZLV       0.121000
     59 H26         85.9470    54.2640   -34.8880 hn         1 ZLV       0.365000
     60 H27         83.2460    52.2500   -37.3650 h4         1 ZLV       0.035100
     61 H29         87.7400    53.5580   -38.1610 h1         1 ZLV       0.095700
     62 H30         89.5680    52.9010   -36.6190 hc         1 ZLV       0.039700
     63 H31         88.4080    52.7000   -35.3100 hc         1 ZLV       0.039700
     64 H32         87.2810    50.8710   -36.5820 hc         1 ZLV       0.057700
     65 H33         88.3940    51.1020   -37.9170 hc         1 ZLV       0.057700
     66 H34         90.3100    50.5080   -36.4190 hc         1 ZLV       0.031700
     67 H35         89.1950    50.2770   -35.0850 hc         1 ZLV       0.031700
     68 H36         88.0560    48.4470   -36.3500 hc         1 ZLV       0.055700
     69 H37         89.1580    48.6830   -37.6930 hc         1 ZLV       0.055700
     70 H38         91.0970    48.1160   -36.2160 hc         1 ZLV       0.044200
     71 H39         90.0040    47.8850   -34.8680 hc         1 ZLV       0.044200
     72 H40         91.7980    44.6890   -33.8720 hc         1 ZLV       0.035700
     73 H41         91.3410    46.3890   -33.8010 hc         1 ZLV       0.035700
     74 H42         90.0940    45.1360   -33.8020 hc         1 ZLV       0.035700
     75 O3          86.6400    56.0980   -38.0470 o          1 ZLV      -0.554100
@<TRIPOS>BOND
     1     1     4 1   
     2     1    35 1   
     3     2    16 1   
     4     2    17 1   
     5     3     4 1   
     6     3    34 1   
     7     3    36 1   
     8     3    37 1   
     9     4     5 1   
    10     4    33 1   
    11     5    38 1   
    12     6     7 1   
    13     6     8 1   
    14     6    75 2   
    15     7    28 1   
    16     7    39 1   
    17     8     9 1   
    18     8    11 1   
    19     8    40 1   
    20     9    10 1   
    21     9    41 1   
    22     9    42 1   
    23    10    11 1   
    24    10    43 1   
    25    10    44 1   
    26    11    12 1   
    27    12    13 1   
    28    12    45 1   
    29    12    46 1   
    30    13    14 1   
    31    13    47 1   
    32    13    48 1   
    33    14    15 1   
    34    14    49 1   
    35    14    50 1   
    36    15    16 1   
    37    15    51 1   
    38    15    52 1   
    39    16    53 1   
    40    16    54 1   
    41    17    18 ar  
    42    17    22 ar  
    43    18    19 ar  
    44    18    55 1   
    45    19    20 ar  
    46    19    56 1   
    47    20    21 ar  
    48    20    57 1   
    49    21    22 ar  
    50    21    58 1   
    51    22    23 1   
    52    23    24 1   
    53    23    25 2   
    54    24    27 1   
    55    24    59 1   
    56    25    26 1   
    57    25    60 1   
    58    26    27 2   
    59    27    28 1   
    60    28    29 1   
    61    28    61 1   
    62    29    30 1   
    63    29    62 1   
    64    29    63 1   
    65    30    31 1   
    66    30    64 1   
    67    30    65 1   
    68    31    32 1   
    69    31    66 1   
    70    31    67 1   
    71    32    33 1   
    72    32    68 1   
    73    32    69 1   
    74    33    70 1   
    75    33    71 1   
    76    34    72 1   
    77    34    73 1   
    78    34    74 1   
@<TRIPOS>SUBSTRUCTURE
     1 ZLV         1 TEMP              0 ****  ****    0 ROOT
