@<TRIPOS>MOLECULE
ZLV
   75    78     1     0     0
SMALL
No Charge or Current Charge


@<TRIPOS>ATOM
      1 O1          90.0440    46.0690   -37.8000 oh         1 ZLV      -0.646500
      2 O2          84.6850    54.9260   -33.1910 os         1 ZLV      -0.384100
      3 C1          91.1850    45.2940   -35.8340 c3         1 ZLV      -0.126400
      4 C2          90.0580    46.2000   -36.3990 c3         1 ZLV       0.402000
      5 O           88.8090    45.7160   -35.9720 oh         1 ZLV      -0.646500
      6 C9          87.5220    56.1270   -37.2350 c          1 ZLV       0.601100
      7 N           88.0680    54.9720   -36.7050 ns         1 ZLV      -0.527900
      8 C10         88.1500    57.3850   -36.4740 cy         1 ZLV       0.065500
      9 C23         88.5430    58.1570   -37.7960 cy         1 ZLV      -0.089400
     10 C22         88.3760    59.4200   -36.8820 cy         1 ZLV       0.146800
     11 N1          87.3290    58.6070   -36.1900 nq         1 ZLV      -0.680600
     12 C11         86.8850    58.9180   -34.8290 c3         1 ZLV       0.160800
     13 C12         85.9040    57.8600   -34.2740 c3         1 ZLV      -0.074400
     14 C13         85.4550    58.1780   -32.8290 c3         1 ZLV      -0.071400
     15 C14         84.4570    57.1650   -32.2160 c3         1 ZLV      -0.105400
     16 C15         85.0140    55.7280   -32.0350 c3         1 ZLV       0.167600
     17 C16         83.4200    54.4020   -33.4320 ca         1 ZLV       0.137100
     18 C21         82.3580    54.6070   -32.5170 ca         1 ZLV      -0.189000
     19 C20         81.0860    54.0710   -32.7620 ca         1 ZLV      -0.077000
     20 C19         80.8570    53.3220   -33.9200 ca         1 ZLV      -0.137000
     21 C18         81.8980    53.1040   -34.8360 ca         1 ZLV      -0.069000
     22 C17         83.1920    53.6350   -34.6130 ca         1 ZLV      -0.020000
     23 C25         84.2650    53.3820   -35.5970 cc         1 ZLV      -0.147000
     24 N2          85.5820    53.7660   -35.5490 na         1 ZLV      -0.274500
     25 C26         84.1120    52.7080   -36.7860 cd         1 ZLV       0.248900
     26 N3          85.3140    52.6830   -37.4680 nd         1 ZLV      -0.667000
     27 C24         86.1850    53.3330   -36.7050 cc         1 ZLV       0.397800
     28 C8          87.6430    53.6020   -37.0530 c3         1 ZLV       0.096400
     29 C7          88.6140    52.5860   -36.4020 c3         1 ZLV      -0.083400
     30 C6          88.3810    51.1190   -36.8340 c3         1 ZLV      -0.073400
     31 C5          89.4030    50.1410   -36.2150 c3         1 ZLV      -0.075400
     32 C4          89.1730    48.6740   -36.6410 c3         1 ZLV      -0.070400
     33 C3          90.2090    47.6990   -36.0160 c3         1 ZLV      -0.131400
     34 C           91.3180    45.2680   -34.2920 c3         1 ZLV      -0.086100
     35 H1          90.2540    45.1300   -37.9760 ho         1 ZLV       0.449500
     36 H2          91.0250    44.2640   -36.1780 hc         1 ZLV       0.053700
     37 H3          92.1450    45.6140   -36.2580 hc         1 ZLV       0.053700
     38 H4          88.1900    46.4610   -36.1030 ho         1 ZLV       0.449500
     39 H5          88.7770    55.0900   -35.9910 hn         1 ZLV       0.308500
     40 H6          88.9930    57.1850   -35.8000 h1         1 ZLV       0.035700
     41 H7          87.8390    58.1520   -38.6370 hc         1 ZLV       0.070200
     42 H8          89.5530    57.9750   -38.1780 hc         1 ZLV       0.070200
     43 H9          89.2630    59.6500   -36.2760 h1         1 ZLV       0.050700
     44 H10         88.0250    60.3220   -37.3970 h1         1 ZLV       0.050700
     45 H12         87.7640    58.9780   -34.1730 h1         1 ZLV       0.029700
     46 H13         86.3950    59.9010   -34.8340 h1         1 ZLV       0.029700
     47 H14         85.0250    57.8030   -34.9260 hc         1 ZLV       0.054200
     48 H15         86.3880    56.8770   -34.2950 hc         1 ZLV       0.054200
     49 H16         86.3410    58.2400   -32.1830 hc         1 ZLV       0.037200
     50 H17         84.9920    59.1720   -32.8160 hc         1 ZLV       0.037200
     51 H18         84.1680    57.5390   -31.2270 hc         1 ZLV       0.055700
     52 H19         83.5380    57.1500   -32.8150 hc         1 ZLV       0.055700
     53 H20         84.6110    55.2740   -31.1200 h1         1 ZLV       0.053200
     54 H21         86.1030    55.7800   -31.9060 h1         1 ZLV       0.053200
     55 H22         82.4960    55.1810   -31.6070 ha         1 ZLV       0.115000
     56 H23         80.2780    54.2370   -32.0520 ha         1 ZLV       0.114000
     57 H24         79.8710    52.9040   -34.1110 ha         1 ZLV       0.119000
     58 H25         81.6820    52.5120   -35.7190 ha         1 ZLV       0.121000
     59 H26         86.0240    54.2950   -34.8090 hn         1 ZLV       0.365000
     60 H27         83.2250    52.2490   -37.2030 h4         1 ZLV       0.035100
     61 H29         87.7380    53.5000   -38.1430 h1         1 ZLV       0.095700
     62 H30         89.6420    52.8660   -36.6630 hc         1 ZLV       0.039700
     63 H31         88.5330    52.6580   -35.3100 hc         1 ZLV       0.039700
     64 H32         87.3700    50.8070   -36.5420 hc         1 ZLV       0.057700
     65 H33         88.4330    51.0520   -37.9280 hc         1 ZLV       0.057700
     66 H34         90.4160    50.4460   -36.5070 hc         1 ZLV       0.031700
     67 H35         89.3510    50.2110   -35.1210 hc         1 ZLV       0.031700
     68 H36         88.1580    48.3780   -36.3500 hc         1 ZLV       0.055700
     69 H37         89.2240    48.6130   -37.7360 hc         1 ZLV       0.055700
     70 H38         91.2150    48.0290   -36.3010 hc         1 ZLV       0.044200
     71 H39         90.1520    47.7950   -34.9250 hc         1 ZLV       0.044200
     72 H40         92.0940    44.5540   -33.9910 hc         1 ZLV       0.035700
     73 H41         91.6010    46.2530   -33.9010 hc         1 ZLV       0.035700
     74 H42         90.3760    44.9630   -33.8190 hc         1 ZLV       0.035700
     75 O3          86.6620    56.0200   -38.1030 o          1 ZLV      -0.554100
@<TRIPOS>BOND
     1     1     4 1   
     2     1    35 1   
     3     2    16 1   
     4     2    17 1   
     5     3     4 1   
     6     3    34 1   
     7     3    36 1   
     8     3    37 1   
     9     4     5 1   
    10     4    33 1   
    11     5    38 1   
    12     6     7 1   
    13     6     8 1   
    14     6    75 2   
    15     7    28 1   
    16     7    39 1   
    17     8     9 1   
    18     8    11 1   
    19     8    40 1   
    20     9    10 1   
    21     9    41 1   
    22     9    42 1   
    23    10    11 1   
    24    10    43 1   
    25    10    44 1   
    26    11    12 1   
    27    12    13 1   
    28    12    45 1   
    29    12    46 1   
    30    13    14 1   
    31    13    47 1   
    32    13    48 1   
    33    14    15 1   
    34    14    49 1   
    35    14    50 1   
    36    15    16 1   
    37    15    51 1   
    38    15    52 1   
    39    16    53 1   
    40    16    54 1   
    41    17    18 ar  
    42    17    22 ar  
    43    18    19 ar  
    44    18    55 1   
    45    19    20 ar  
    46    19    56 1   
    47    20    21 ar  
    48    20    57 1   
    49    21    22 ar  
    50    21    58 1   
    51    22    23 1   
    52    23    24 1   
    53    23    25 2   
    54    24    27 1   
    55    24    59 1   
    56    25    26 1   
    57    25    60 1   
    58    26    27 2   
    59    27    28 1   
    60    28    29 1   
    61    28    61 1   
    62    29    30 1   
    63    29    62 1   
    64    29    63 1   
    65    30    31 1   
    66    30    64 1   
    67    30    65 1   
    68    31    32 1   
    69    31    66 1   
    70    31    67 1   
    71    32    33 1   
    72    32    68 1   
    73    32    69 1   
    74    33    70 1   
    75    33    71 1   
    76    34    72 1   
    77    34    73 1   
    78    34    74 1   
@<TRIPOS>SUBSTRUCTURE
     1 ZLV         1 TEMP              0 ****  ****    0 ROOT
