@<TRIPOS>MOLECULE
ZLW
   37    38     1     0     0
SMALL
No Charge or Current Charge


@<TRIPOS>ATOM
      1 N1         -14.6660    20.7150    26.4390 n8         1 ZLW      -1.003200
      2 N3         -17.3920    15.4690    26.5560 n          1 ZLW      -0.423800
      3 C4         -18.4440    14.9860    27.4960 c6         1 ZLW       0.085000
      4 C5         -19.0450    13.6010    27.1620 c6         1 ZLW       0.091500
      5 C6         -18.2890    13.7600    24.8400 c6         1 ZLW       0.091500
      6 C7         -17.6150    15.1290    25.1170 c6         1 ZLW       0.085000
      7 C10        -22.6540    11.4550    25.8970 cc         1 ZLW      -0.103000
      8 C1         -15.5910    19.5650    26.2930 c3         1 ZLW       0.120800
      9 C11        -23.6810    11.7270    26.8200 cc         1 ZLW      -0.196000
     10 C12        -23.2740    12.8120    27.5460 cd         1 ZLW       0.145900
     11 C2         -14.8490    18.2100    26.1620 c3         1 ZLW       0.108000
     12 C3         -16.5540    16.5310    26.9510 c          1 ZLW       0.648100
     13 C9         -21.6710    12.3830    26.1250 cd         1 ZLW       0.062500
     14 N2         -15.7650    17.0780    25.9680 ns         1 ZLW      -0.515900
     15 N4         -19.4350    13.4550    25.7330 n          1 ZLW      -0.408800
     16 O1         -16.5210    16.9410    28.1000 o          1 ZLW      -0.645100
     17 O2         -20.2240    11.8330    24.3070 o          1 ZLW      -0.596100
     18 O3         -22.0400    13.2600    27.1300 os         1 ZLW      -0.248000
     19 H19        -15.2150    21.5770    26.5520 hn         1 ZLW       0.398500
     20 H1         -14.1650    20.6350    27.3330 hn         1 ZLW       0.398500
     21 H8         -18.0380    14.9440    28.5170 h1         1 ZLW       0.056450
     22 H9         -19.2590    15.7240    27.5050 h1         1 ZLW       0.056450
     23 H11        -18.2810    12.8410    27.3800 h1         1 ZLW       0.066450
     24 H10        -19.8690    13.3990    27.8530 h1         1 ZLW       0.066450
     25 H12        -17.5370    12.9670    24.9590 h1         1 ZLW       0.066450
     26 H13        -18.6140    13.7400    23.7890 h1         1 ZLW       0.066450
     27 H15        -16.6600    15.1390    24.5730 h1         1 ZLW       0.056450
     28 H14        -18.2450    15.9160    24.6790 h1         1 ZLW       0.056450
     29 H3         -16.2580    19.5390    27.1660 h1         1 ZLW       0.035200
     30 H4         -16.2060    19.7260    25.3970 h1         1 ZLW       0.035200
     31 H17        -24.6120    11.1790    26.9230 ha         1 ZLW       0.148000
     32 H18        -23.7590    13.3490    28.3510 h4         1 ZLW       0.055100
     33 H6         -14.1660    18.2540    25.3030 h1         1 ZLW       0.066700
     34 H5         -14.2470    18.0300    27.0620 h1         1 ZLW       0.066700
     35 H7         -15.8440    16.6770    25.0440 hn         1 ZLW       0.306500
     36 C8         -20.4060    12.5030    25.3190 c          1 ZLW       0.544600
     37 H16        -22.6520    10.6630    25.1530 ha         1 ZLW       0.157000
@<TRIPOS>BOND
     1     1     8 1   
     2     1    19 1   
     3     1    20 1   
     4     2     3 1   
     5     2     6 1   
     6     2    12 1   
     7     3     4 1   
     8     3    21 1   
     9     3    22 1   
    10     4    15 1   
    11     4    23 1   
    12     4    24 1   
    13     5     6 1   
    14     5    15 1   
    15     5    25 1   
    16     5    26 1   
    17     6    27 1   
    18     6    28 1   
    19     7     9 1   
    20     7    13 2   
    21     7    37 1   
    22     8    11 1   
    23     8    29 1   
    24     8    30 1   
    25     9    10 2   
    26     9    31 1   
    27    10    18 1   
    28    10    32 1   
    29    11    14 1   
    30    11    33 1   
    31    11    34 1   
    32    12    14 1   
    33    12    16 2   
    34    13    18 1   
    35    13    36 1   
    36    14    35 1   
    37    15    36 1   
    38    17    36 2   
@<TRIPOS>SUBSTRUCTURE
     1 ZLW         1 TEMP              0 ****  ****    0 ROOT
