@<TRIPOS>MOLECULE
ZLW
   37    38     1     0     0
SMALL
abcg2


@<TRIPOS>ATOM
      1 N1         -14.7080    20.5230    26.6310 n8         1 ZLW      -1.003200
      2 N3         -17.5020    15.4180    26.4490 n          1 ZLW      -0.423800
      3 C4         -18.5840    15.0240    27.3490 c6         1 ZLW       0.085000
      4 C5         -18.9420    13.5610    27.1490 c6         1 ZLW       0.091500
      5 C6         -18.1260    13.6330    24.8720 c6         1 ZLW       0.091500
      6 C7         -17.7340    15.0980    25.0440 c6         1 ZLW       0.085000
      7 C10        -22.5150    11.5500    26.0000 cc         1 ZLW      -0.103000
      8 C1         -15.6840    19.4770    26.3060 c3         1 ZLW       0.120800
      9 C11        -23.4970    11.9050    26.9720 cc         1 ZLW      -0.196000
     10 C12        -23.0490    13.0430    27.5650 cd         1 ZLW       0.145900
     11 C2         -14.9880    18.1180    26.2500 c3         1 ZLW       0.108000
     12 C3         -16.6450    16.4120    26.8730 c          1 ZLW       0.648100
     13 C9         -21.5280    12.4870    26.0780 cd         1 ZLW       0.062500
     14 N2         -15.8920    17.0310    25.9210 ns         1 ZLW      -0.515900
     15 N4         -19.2460    13.3050    25.7430 n          1 ZLW      -0.408800
     16 O1         -16.5330    16.6970    28.0720 o          1 ZLW      -0.645100
     17 O2         -20.3340    12.1660    24.1050 o          1 ZLW      -0.596100
     18 O3         -21.8530    13.4120    27.0370 os         1 ZLW      -0.248000
     19 H19        -15.1520    21.4340    26.5840 hn         1 ZLW       0.398500
     20 H1         -14.3970    20.4130    27.5910 hn         1 ZLW       0.398500
     21 H8         -18.2570    15.1880    28.3710 h1         1 ZLW       0.056450
     22 H9         -19.4720    15.6410    27.1620 h1         1 ZLW       0.056450
     23 H11        -18.0880    12.9340    27.4260 h1         1 ZLW       0.066450
     24 H10        -19.7800    13.2950    27.7800 h1         1 ZLW       0.066450
     25 H12        -17.2750    12.9910    25.1200 h1         1 ZLW       0.066450
     26 H13        -18.4130    13.4480    23.8420 h1         1 ZLW       0.066450
     27 H15        -16.8240    15.2510    24.4690 h1         1 ZLW       0.056450
     28 H14        -18.5230    15.7360    24.6280 h1         1 ZLW       0.056450
     29 H3         -16.5150    19.4160    27.0180 h1         1 ZLW       0.035200
     30 H4         -16.1110    19.6980    25.3250 h1         1 ZLW       0.035200
     31 H17        -24.4140    11.3860    27.1950 ha         1 ZLW       0.148000
     32 H18        -23.4430    13.6840    28.3350 h4         1 ZLW       0.055100
     33 H6         -14.1990    18.1430    25.4970 h1         1 ZLW       0.066700
     34 H5         -14.5250    17.9010    27.2120 h1         1 ZLW       0.066700
     35 H7         -16.1480    16.9440    24.9530 hn         1 ZLW       0.306500
     36 C8         -20.3170    12.6390    25.2480 c          1 ZLW       0.544600
     37 H16        -22.5330    10.7100    25.3270 ha         1 ZLW       0.157000
@<TRIPOS>BOND
     1     1     8 1   
     2     1    19 1   
     3     1    20 1   
     4     2     3 1   
     5     2     6 1   
     6     2    12 1   
     7     3     4 1   
     8     3    21 1   
     9     3    22 1   
    10     4    15 1   
    11     4    23 1   
    12     4    24 1   
    13     5     6 1   
    14     5    15 1   
    15     5    25 1   
    16     5    26 1   
    17     6    27 1   
    18     6    28 1   
    19     7     9 1   
    20     7    13 2   
    21     7    37 1   
    22     8    11 1   
    23     8    29 1   
    24     8    30 1   
    25     9    10 2   
    26     9    31 1   
    27    10    18 1   
    28    10    32 1   
    29    11    14 1   
    30    11    33 1   
    31    11    34 1   
    32    12    14 1   
    33    12    16 2   
    34    13    18 1   
    35    13    36 1   
    36    14    35 1   
    37    15    36 1   
    38    17    36 2   
@<TRIPOS>SUBSTRUCTURE
     1 ZLW         1 TEMP              0 ****  ****    0 ROOT
