@<TRIPOS>MOLECULE
ZLY
   91    95     1     0     0
SMALL
No Charge or Current Charge


@<TRIPOS>ATOM
      1 C10         13.1460    84.0480     3.6800 ca         1 ZLY      -0.123000
      2 C13         13.4700    83.0970     6.3040 ca         1 ZLY      -0.039000
      3 C15         12.5760    82.1540     8.3610 ca         1 ZLY      -0.081000
      4 C17          9.9960    80.6990     4.1310 c3         1 ZLY      -0.039200
      5 C20         13.2400    78.8060     5.5470 c3         1 ZLY       0.027800
      6 C21         14.4990    79.5920     5.1590 ca         1 ZLY      -0.131300
      7 C22         15.3880    80.0250     6.1630 ca         1 ZLY      -0.105000
      8 C24         16.9160    80.9190     4.4790 ca         1 ZLY       0.017700
      9 C26         18.0810    83.0650     3.8790 c          1 ZLY       0.730000
     10 C02          6.3070    79.3980     3.9000 c          1 ZLY       0.601100
     11 C04          7.6700    81.1240     5.1620 c3         1 ZLY       0.100000
     12 C05          9.2050    81.1410     5.4090 c3         1 ZLY      -0.083700
     13 C06          9.6340    82.5370     5.9510 c3         1 ZLY      -0.020100
     14 C07         11.0720    82.6030     6.4790 ca         1 ZLY      -0.094300
     15 C08         12.1750    83.0940     5.7220 ca         1 ZLY      -0.036000
     16 C09         12.0330    83.5800     4.3980 ca         1 ZLY      -0.107000
     17 C11         14.4170    84.0440     4.2680 ca         1 ZLY      -0.127000
     18 C12         14.5780    83.5690     5.5770 ca         1 ZLY      -0.090000
     19 C14         13.6630    82.6270     7.6150 ca         1 ZLY      -0.098000
     20 C16         11.2920    82.1470     7.7970 ca         1 ZLY      -0.095000
     21 C18         11.3530    80.0220     4.3110 c2         1 ZLY      -0.254200
     22 C19         11.9600    79.6270     5.4480 c2         1 ZLY      -0.200200
     23 C23         16.5850    80.6810     5.8270 ca         1 ZLY      -0.117500
     24 C25         18.2520    81.5580     4.1090 c3         1 ZLY      -0.195100
     25 C29         16.0170    80.5120     3.4750 ca         1 ZLY      -0.117500
     26 C30         14.8190    79.8550     3.8100 ca         1 ZLY      -0.105000
     27 C31         13.1200    77.4630     4.7760 c3         1 ZLY      -0.161400
     28 C32         12.0060    76.6030     5.3720 c          1 ZLY       0.603100
     29 C34          9.4430    76.2800     5.1580 c6         1 ZLY       0.070400
     30 C35          9.1530    76.7820     6.6270 c6         1 ZLY      -0.080400
     31 C36          7.8860    76.2080     7.3280 c6         1 ZLY      -0.068900
     32 C37          7.5270    74.7680     6.8800 c6         1 ZLY      -0.074400
     33 C38          8.7640    74.0200     6.3490 c6         1 ZLY      -0.068900
     34 C39          9.3350    74.7100     5.0810 c6         1 ZLY      -0.080400
     35 C41          6.1170    77.8570     3.6990 c3         1 ZLY       0.035700
     36 C42          4.6600    77.3980     3.9590 c3         1 ZLY      -0.169400
     37 C43          4.2460    77.5680     5.4190 c          1 ZLY       0.615100
     38 C47          8.4230    76.9090     4.1230 c          1 ZLY       0.588100
     39 N03          7.1760    79.7670     4.9080 ns         1 ZLY      -0.485900
     40 N33         10.7980    76.7160     4.7180 ns         1 ZLY      -0.525900
     41 N44          3.5420    78.6780     5.7170 nt         1 ZLY      -0.598000
     42 N46          7.1000    77.0710     4.4920 ns         1 ZLY      -0.512900
     43 O27         18.1830    83.8090     4.8440 o          1 ZLY      -0.727500
     44 O28         17.7810    83.4470     2.7570 o          1 ZLY      -0.727500
     45 O40         12.1850    75.8760     6.3380 o          1 ZLY      -0.614100
     46 O45          4.5250    76.7610     6.2870 o          1 ZLY      -0.621100
     47 O48          8.8070    77.3480     3.0450 o          1 ZLY      -0.602100
     48 H1          13.0190    84.4160     2.6640 ha         1 ZLY       0.098000
     49 H2          12.7280    81.7920     9.3760 ha         1 ZLY       0.176000
     50 H3           9.3770    80.0030     3.5530 hc         1 ZLY       0.046200
     51 H4          10.1060    81.5660     3.4710 hc         1 ZLY       0.046200
     52 H5          13.3490    78.5220     6.6020 hc         1 ZLY       0.063700
     53 H6          15.1630    79.8390     7.2100 ha         1 ZLY       0.093500
     54 H7           7.4300    81.7770     4.3120 h1         1 ZLY       0.053700
     55 H8           7.1470    81.5120     6.0460 h1         1 ZLY       0.053700
     56 H9           9.3840    80.4090     6.2040 hc         1 ZLY       0.077700
     57 H10          8.9620    82.7970     6.7780 hc         1 ZLY       0.042200
     58 H11          9.4310    83.3060     5.1990 hc         1 ZLY       0.042200
     59 H12         11.0720    83.6040     3.9000 ha         1 ZLY       0.100000
     60 H13         15.2770    84.4070     3.7100 ha         1 ZLY       0.101000
     61 H14         15.5690    83.5670     6.0250 ha         1 ZLY       0.113000
     62 H15         14.6570    82.6280     8.0570 ha         1 ZLY       0.132000
     63 H16         10.4590    81.7730     8.3880 ha         1 ZLY       0.120000
     64 H17         11.8280    79.8020     3.3550 ha         1 ZLY       0.160000
     65 H18         11.5040    79.8140     6.4180 ha         1 ZLY       0.192000
     66 H19         17.2650    80.9900     6.6170 ha         1 ZLY       0.111500
     67 H20         18.9360    81.3850     4.9480 hc         1 ZLY       0.034200
     68 H21         18.5870    81.0750     3.1830 hc         1 ZLY       0.034200
     69 H22         16.2550    80.6900     2.4290 ha         1 ZLY       0.111500
     70 H23         14.1540    79.5370     3.0130 ha         1 ZLY       0.093500
     71 H24         14.0700    76.9230     4.8630 hc         1 ZLY       0.076700
     72 H25         12.9010    77.6800     3.7260 hc         1 ZLY       0.076700
     73 H26          9.9980    76.5230     7.2740 hc         1 ZLY       0.060700
     74 H27          9.1210    77.8800     6.6460 hc         1 ZLY       0.060700
     75 H28          7.0280    76.8770     7.1890 hc         1 ZLY       0.038950
     76 H29          8.0670    76.2080     8.4120 hc         1 ZLY       0.038950
     77 H30          6.7530    74.7900     6.1000 hc         1 ZLY       0.042200
     78 H31          7.0880    74.2170     7.7240 hc         1 ZLY       0.042200
     79 H32          8.5020    72.9780     6.1160 hc         1 ZLY       0.038950
     80 H33          9.5350    73.9750     7.1310 hc         1 ZLY       0.038950
     81 H34         10.3200    74.2710     4.8690 hc         1 ZLY       0.060700
     82 H35          8.7160    74.4280     4.2170 hc         1 ZLY       0.060700
     83 H36          6.3280    77.6790     2.6360 h1         1 ZLY       0.094700
     84 H37          4.0030    77.9960     3.3170 hc         1 ZLY       0.071200
     85 H38          4.5790    76.3380     3.6900 hc         1 ZLY       0.071200
     86 H39          7.5840    79.0080     5.4360 hn         1 ZLY       0.321500
     87 H40         10.8110    77.3330     3.9120 hn         1 ZLY       0.328500
     88 H41          3.2420    78.8290     6.6690 hn         1 ZLY       0.316000
     89 H42          3.3100    79.3430     4.9940 hn         1 ZLY       0.316000
     90 H43          6.8050    76.6540     5.3690 hn         1 ZLY       0.352500
     91 O01          5.7370    80.2260     3.2030 o          1 ZLY      -0.618100
@<TRIPOS>BOND
     1     1    16 ar  
     2     1    17 ar  
     3     1    48 1   
     4     2    15 ar  
     5     2    18 ar  
     6     2    19 ar  
     7     3    19 ar  
     8     3    20 ar  
     9     3    49 1   
    10     4    12 1   
    11     4    21 1   
    12     4    50 1   
    13     4    51 1   
    14     5     6 1   
    15     5    22 1   
    16     5    27 1   
    17     5    52 1   
    18     6     7 ar  
    19     6    26 ar  
    20     7    23 ar  
    21     7    53 1   
    22     8    23 ar  
    23     8    24 1   
    24     8    25 ar  
    25     9    24 1   
    26     9    43 1   
    27     9    44 1   
    28    10    35 1   
    29    10    39 1   
    30    10    91 2   
    31    11    12 1   
    32    11    39 1   
    33    11    54 1   
    34    11    55 1   
    35    12    13 1   
    36    12    56 1   
    37    13    14 1   
    38    13    57 1   
    39    13    58 1   
    40    14    15 ar  
    41    14    20 ar  
    42    15    16 ar  
    43    16    59 1   
    44    17    18 ar  
    45    17    60 1   
    46    18    61 1   
    47    19    62 1   
    48    20    63 1   
    49    21    22 2   
    50    21    64 1   
    51    22    65 1   
    52    23    66 1   
    53    24    67 1   
    54    24    68 1   
    55    25    26 ar  
    56    25    69 1   
    57    26    70 1   
    58    27    28 1   
    59    27    71 1   
    60    27    72 1   
    61    28    40 1   
    62    28    45 2   
    63    29    30 1   
    64    29    34 1   
    65    29    38 1   
    66    29    40 1   
    67    30    31 1   
    68    30    73 1   
    69    30    74 1   
    70    31    32 1   
    71    31    75 1   
    72    31    76 1   
    73    32    33 1   
    74    32    77 1   
    75    32    78 1   
    76    33    34 1   
    77    33    79 1   
    78    33    80 1   
    79    34    81 1   
    80    34    82 1   
    81    35    36 1   
    82    35    42 1   
    83    35    83 1   
    84    36    37 1   
    85    36    84 1   
    86    36    85 1   
    87    37    41 1   
    88    37    46 2   
    89    38    42 1   
    90    38    47 2   
    91    39    86 1   
    92    40    87 1   
    93    41    88 1   
    94    41    89 1   
    95    42    90 1   
@<TRIPOS>SUBSTRUCTURE
     1 ZLY         1 TEMP              0 ****  ****    0 ROOT
