@<TRIPOS>MOLECULE
ZLY
   91    95     1     0     0
SMALL
abcg2


@<TRIPOS>ATOM
      1 C10         12.1440    86.3510     1.4110 ca         1 ZLY      -0.123000
      2 C13         13.5620    85.0550     3.4420 ca         1 ZLY      -0.039000
      3 C15         13.7560    83.2890     5.0660 ca         1 ZLY      -0.081000
      4 C17         10.8700    80.3890     3.1570 c3         1 ZLY      -0.039200
      5 C20         12.0570    78.1550     6.1880 c3         1 ZLY       0.027800
      6 C21         13.2830    78.8290     6.7790 ca         1 ZLY      -0.131300
      7 C22         13.4410    78.9520     8.1530 ca         1 ZLY      -0.105000
      8 C24         15.6010    80.0180     7.8750 ca         1 ZLY       0.017700
      9 C26         16.8690    82.1780     8.5180 c          1 ZLY       0.730000
     10 C02          7.1900    79.9670     5.1890 c          1 ZLY       0.601100
     11 C04          8.5280    81.2590     3.5780 c3         1 ZLY       0.100000
     12 C05         10.0210    81.4960     3.8080 c3         1 ZLY      -0.083700
     13 C06         10.4080    82.8660     3.2490 c3         1 ZLY      -0.020100
     14 C07         11.7660    83.3820     3.6630 ca         1 ZLY      -0.094300
     15 C08         12.2980    84.5500     3.0320 ca         1 ZLY      -0.036000
     16 C09         11.6090    85.2390     2.0030 ca         1 ZLY      -0.107000
     17 C11         13.3990    86.8440     1.8180 ca         1 ZLY      -0.127000
     18 C12         14.0880    86.2090     2.8140 ca         1 ZLY      -0.090000
     19 C14         14.2770    84.4020     4.4730 ca         1 ZLY      -0.098000
     20 C16         12.5050    82.7850     4.6550 ca         1 ZLY      -0.095000
     21 C18         11.3880    79.2720     4.0100 c2         1 ZLY      -0.254200
     22 C19         11.3370    79.1700     5.3360 c2         1 ZLY      -0.200200
     23 C23         14.5810    79.5390     8.6910 ca         1 ZLY      -0.117500
     24 C25         16.8370    80.6250     8.4610 c3         1 ZLY      -0.195100
     25 C29         15.4320    79.9000     6.4950 ca         1 ZLY      -0.117500
     26 C30         14.2950    79.3220     5.9560 ca         1 ZLY      -0.105000
     27 C31         12.4550    76.8380     5.4980 c3         1 ZLY      -0.161400
     28 C32         11.3540    75.7960     5.3690 c          1 ZLY       0.603100
     29 C34          8.9140    75.4820     4.8920 c6         1 ZLY       0.070400
     30 C35          8.6000    74.7400     6.2100 c6         1 ZLY      -0.080400
     31 C36          7.2770    73.9750     6.1470 c6         1 ZLY      -0.068900
     32 C37          7.1140    73.1780     4.8380 c6         1 ZLY      -0.074400
     33 C38          8.4280    73.0920     4.0710 c6         1 ZLY      -0.068900
     34 C39          8.9760    74.4750     3.7170 c6         1 ZLY      -0.080400
     35 C41          6.7890    78.5570     5.6360 c3         1 ZLY       0.035700
     36 C42          6.2630    78.5790     7.0660 c3         1 ZLY      -0.169400
     37 C43          7.2760    79.1300     8.0470 c          1 ZLY       0.615100
     38 C47          7.7580    76.4890     4.7050 c          1 ZLY       0.588100
     39 N03          8.0610    80.0280     4.1740 ns         1 ZLY      -0.485900
     40 N33         10.1410    76.2680     5.0130 ns         1 ZLY      -0.525900
     41 N44          6.7720    79.5780     9.2010 nt         1 ZLY      -0.598000
     42 N46          7.8500    77.5950     5.4740 ns         1 ZLY      -0.512900
     43 O27         17.7180    82.6570     9.2930 o          1 ZLY      -0.727500
     44 O28         16.0860    82.8030     7.7800 o          1 ZLY      -0.727500
     45 O40         11.5840    74.6160     5.5890 o          1 ZLY      -0.614100
     46 O45          8.4780    79.1320     7.8010 o          1 ZLY      -0.621100
     47 O48          6.8210    76.2800     3.9570 o          1 ZLY      -0.602100
     48 H1          11.5980    86.8580     0.6250 ha         1 ZLY       0.098000
     49 H2          14.2970    82.7870     5.8580 ha         1 ZLY       0.176000
     50 H3          10.3170    79.9620     2.3120 hc         1 ZLY       0.046200
     51 H4          11.7550    80.8370     2.6900 hc         1 ZLY       0.046200
     52 H5          11.4000    77.9020     7.0260 hc         1 ZLY       0.063700
     53 H6          12.6690    78.5790     8.8170 ha         1 ZLY       0.093500
     54 H7           8.3190    81.2400     2.5040 h1         1 ZLY       0.053700
     55 H8           7.9500    82.0780     4.0030 h1         1 ZLY       0.053700
     56 H9          10.1640    81.5140     4.8910 hc         1 ZLY       0.077700
     57 H10          9.6560    83.6050     3.5460 hc         1 ZLY       0.042200
     58 H11         10.3510    82.8180     2.1570 hc         1 ZLY       0.042200
     59 H12         10.6400    84.8860     1.6740 ha         1 ZLY       0.100000
     60 H13         13.8120    87.7240     1.3430 ha         1 ZLY       0.101000
     61 H14         15.0520    86.5820     3.1370 ha         1 ZLY       0.113000
     62 H15         15.2370    84.7990     4.7820 ha         1 ZLY       0.132000
     63 H16         12.1380    81.8990     5.1550 ha         1 ZLY       0.120000
     64 H17         11.9250    78.5160     3.4440 ha         1 ZLY       0.160000
     65 H18         10.8080    79.9200     5.9140 ha         1 ZLY       0.192000
     66 H19         14.6810    79.6130     9.7680 ha         1 ZLY       0.111500
     67 H20         17.0030    80.2360     9.4690 hc         1 ZLY       0.034200
     68 H21         17.7090    80.3140     7.8760 hc         1 ZLY       0.034200
     69 H22         16.2090    80.2590     5.8310 ha         1 ZLY       0.111500
     70 H23         14.1940    79.2530     4.8790 ha         1 ZLY       0.093500
     71 H24         13.2420    76.3630     6.0840 hc         1 ZLY       0.076700
     72 H25         12.8920    77.0230     4.5120 hc         1 ZLY       0.076700
     73 H26          9.4090    74.0400     6.4060 hc         1 ZLY       0.060700
     74 H27          8.5910    75.4450     7.0450 hc         1 ZLY       0.060700
     75 H28          6.4350    74.6580     6.2810 hc         1 ZLY       0.038950
     76 H29          7.2480    73.3010     7.0050 hc         1 ZLY       0.038950
     77 H30          6.3650    73.6510     4.2000 hc         1 ZLY       0.042200
     78 H31          6.7420    72.1740     5.0510 hc         1 ZLY       0.042200
     79 H32          8.2940    72.5180     3.1520 hc         1 ZLY       0.038950
     80 H33          9.1650    72.5430     4.6650 hc         1 ZLY       0.038950
     81 H34         10.0120    74.3740     3.3960 hc         1 ZLY       0.060700
     82 H35          8.4270    74.8740     2.8640 hc         1 ZLY       0.060700
     83 H36          5.9680    78.2500     4.9820 h1         1 ZLY       0.094700
     84 H37          5.3330    79.1440     7.1160 hc         1 ZLY       0.071200
     85 H38          6.0140    77.5550     7.3620 hc         1 ZLY       0.071200
     86 H39          8.4410    79.1630     3.8220 hn         1 ZLY       0.321500
     87 H40         10.1210    77.2190     4.6730 hn         1 ZLY       0.328500
     88 H41          7.3820    79.9180     9.9270 hn         1 ZLY       0.316000
     89 H42          5.7830    79.5880     9.3830 hn         1 ZLY       0.316000
     90 H43          8.5990    77.6730     6.1480 hn         1 ZLY       0.352500
     91 O01          6.6740    80.9430     5.7120 o          1 ZLY      -0.618100
@<TRIPOS>BOND
     1     1    16 ar  
     2     1    17 ar  
     3     1    48 1   
     4     2    15 ar  
     5     2    18 ar  
     6     2    19 ar  
     7     3    19 ar  
     8     3    20 ar  
     9     3    49 1   
    10     4    12 1   
    11     4    21 1   
    12     4    50 1   
    13     4    51 1   
    14     5     6 1   
    15     5    22 1   
    16     5    27 1   
    17     5    52 1   
    18     6     7 ar  
    19     6    26 ar  
    20     7    23 ar  
    21     7    53 1   
    22     8    23 ar  
    23     8    24 1   
    24     8    25 ar  
    25     9    24 1   
    26     9    43 1   
    27     9    44 1   
    28    10    35 1   
    29    10    39 1   
    30    10    91 2   
    31    11    12 1   
    32    11    39 1   
    33    11    54 1   
    34    11    55 1   
    35    12    13 1   
    36    12    56 1   
    37    13    14 1   
    38    13    57 1   
    39    13    58 1   
    40    14    15 ar  
    41    14    20 ar  
    42    15    16 ar  
    43    16    59 1   
    44    17    18 ar  
    45    17    60 1   
    46    18    61 1   
    47    19    62 1   
    48    20    63 1   
    49    21    22 2   
    50    21    64 1   
    51    22    65 1   
    52    23    66 1   
    53    24    67 1   
    54    24    68 1   
    55    25    26 ar  
    56    25    69 1   
    57    26    70 1   
    58    27    28 1   
    59    27    71 1   
    60    27    72 1   
    61    28    40 1   
    62    28    45 2   
    63    29    30 1   
    64    29    34 1   
    65    29    38 1   
    66    29    40 1   
    67    30    31 1   
    68    30    73 1   
    69    30    74 1   
    70    31    32 1   
    71    31    75 1   
    72    31    76 1   
    73    32    33 1   
    74    32    77 1   
    75    32    78 1   
    76    33    34 1   
    77    33    79 1   
    78    33    80 1   
    79    34    81 1   
    80    34    82 1   
    81    35    36 1   
    82    35    42 1   
    83    35    83 1   
    84    36    37 1   
    85    36    84 1   
    86    36    85 1   
    87    37    41 1   
    88    37    46 2   
    89    38    42 1   
    90    38    47 2   
    91    39    86 1   
    92    40    87 1   
    93    41    88 1   
    94    41    89 1   
    95    42    90 1   
@<TRIPOS>SUBSTRUCTURE
     1 ZLY         1 TEMP              0 ****  ****    0 ROOT
