@<TRIPOS>MOLECULE
ZM3
  107   109     1     0     0
SMALL
No Charge or Current Charge


@<TRIPOS>ATOM
      1 N            5.4950     4.4020     0.7020 n3         1 ZM3      -0.710600
      2 C1          -2.2440    -1.5530     0.0560 c2         1 ZM3      -0.181200
      3 C2          -1.8340    -0.5410     0.8530 ce         1 ZM3      -0.187000
      4 O2           3.7690    -0.2740    -0.0260 os         1 ZM3      -0.453000
      5 C3          -0.7630    -0.6170     1.8550 ce         1 ZM3      -0.094000
      6 O3           3.2250     2.5500    -0.0800 oh         1 ZM3      -0.697000
      7 C4           0.1010    -1.6600     2.0220 cf         1 ZM3      -0.324200
      8 O4           6.0640     0.1520     0.2430 os         1 ZM3      -0.483000
      9 C5           1.2910    -1.6200     2.9180 c          1 ZM3       0.573300
     10 C6           2.2760    -2.8100     2.8200 c3         1 ZM3      -0.160700
     11 O6          -1.3720    -2.4230    -2.4220 os         1 ZM3      -0.448100
     12 C7           2.8260    -3.2120     4.2110 c3         1 ZM3      -0.076100
     13 O7          -5.0750    -0.8740     0.4460 os         1 ZM3      -0.438000
     14 C8           3.4190    -2.4750     1.8100 c3         1 ZM3      -0.061400
     15 O8          -7.4230     0.3010     2.0090 os         1 ZM3      -0.432000
     16 C9           2.9980    -2.5370     0.2980 c3         1 ZM3      -0.061700
     17 O9          -7.9040     2.6200     0.3790 oh         1 ZM3      -0.707000
     18 C10          2.9920    -4.0200    -0.1660 c3         1 ZM3      -0.094100
     19 O10         -6.1380     4.6490     0.1310 oh         1 ZM3      -0.726000
     20 C11          3.8570    -1.5920    -0.6180 c3         1 ZM3       0.188300
     21 O11         -4.6090     1.2800    -0.3180 os         1 ZM3      -0.491000
     22 C12          4.8300     0.6670    -0.2880 c6         1 ZM3       0.356300
     23 C13          4.5010     2.0380     0.3830 c6         1 ZM3       0.157300
     24 C14          5.6920     3.0300     0.1130 c6         1 ZM3       0.194500
     25 C15          5.3350     4.4510     2.1770 c3         1 ZM3       0.160100
     26 C16          6.4550     5.4150     0.2030 c3         1 ZM3       0.160100
     27 C17          7.0310     2.3710     0.5680 c6         1 ZM3      -0.148400
     28 C18          7.2030     0.9710    -0.0710 c6         1 ZM3       0.185300
     29 C19          8.4540     0.2290     0.4540 c3         1 ZM3      -0.088100
     30 C20          3.4330    -1.4550    -2.1300 c3         1 ZM3      -0.058500
     31 C21          3.8310    -2.6480    -3.0360 c3         1 ZM3      -0.090100
     32 C22          1.9790    -1.0240    -2.3140 c2         1 ZM3      -0.119200
     33 C23          0.8920    -1.8310    -2.3780 ce         1 ZM3      -0.290200
     34 C24         -0.5110    -1.3560    -2.5150 c          1 ZM3       0.603300
     35 C25         -2.8120    -2.2580    -2.3490 c3         1 ZM3       0.193300
     36 C26         -3.3640    -1.7430    -3.7080 c3         1 ZM3      -0.104400
     37 C27         -2.9530    -2.6060    -4.9220 c3         1 ZM3      -0.084100
     38 C28         -3.2200    -1.3970    -1.1070 c3         1 ZM3      -0.086500
     39 C29         -4.6860    -1.6920    -0.6790 c3         1 ZM3       0.173600
     40 C30         -5.6570     0.4210     0.1770 c6         1 ZM3       0.371300
     41 C31         -6.2840     1.0470     1.4750 c6         1 ZM3       0.155300
     42 C32         -7.1940    -1.0250     2.5230 c3         1 ZM3       0.146900
     43 C33         -6.7230     2.5260     1.1970 c6         1 ZM3       0.176300
     44 C35         -5.6030     3.3580     0.5080 c6         1 ZM3       0.097300
     45 C36         -5.0480     2.5850    -0.7280 c6         1 ZM3       0.154300
     46 C37         -3.8190     3.2700    -1.3770 c3         1 ZM3      -0.095100
     47 H1          -1.8310    -2.5560     0.1610 ha         1 ZM3       0.175000
     48 H2          -2.2740     0.4490     0.7160 ha         1 ZM3       0.193000
     49 H3          -0.6040     0.2910     2.4440 ha         1 ZM3       0.191000
     50 HO3          2.5970     1.7970     0.0050 ho         1 ZM3       0.511000
     51 H4          -0.0130    -2.5550     1.4160 ha         1 ZM3       0.184000
     52 H6           1.7250    -3.6640     2.4110 hc         1 ZM3       0.060700
     53 H7           2.0030    -3.4370     4.9010 hc         1 ZM3       0.039367
     54 H7A          3.4570    -4.1050     4.1350 hc         1 ZM3       0.039367
     55 H7B          3.4270    -2.4040     4.6460 hc         1 ZM3       0.039367
     56 H8           3.8150    -1.4870     2.0730 hc         1 ZM3       0.062700
     57 H8A          4.2580    -3.1660     1.9620 hc         1 ZM3       0.062700
     58 H9           1.9700    -2.1720     0.2240 hc         1 ZM3       0.050700
     59 HO9         -7.8190     3.5290    -0.0050 ho         1 ZM3       0.518000
     60 H10          2.6360    -4.6900     0.6240 hc         1 ZM3       0.036033
     61 H10A         2.3240    -4.1720    -1.0160 hc         1 ZM3       0.036033
     62 H10B         4.0020    -4.3450    -0.4450 hc         1 ZM3       0.036033
     63 HO10        -5.3740     5.2640     0.0190 ho         1 ZM3       0.515000
     64 H11          4.8940    -1.9510    -0.5800 h1         1 ZM3       0.047700
     65 H12          4.9350     0.8200    -1.3710 h2         1 ZM3       0.023700
     66 H13          4.4470     1.8540     1.4660 h1         1 ZM3       0.055700
     67 H14          5.7510     3.1380    -0.9810 h1         1 ZM3       0.061700
     68 H15          6.2630     4.1620     2.6880 h1         1 ZM3       0.029867
     69 H15A         5.0780     5.4690     2.4990 h1         1 ZM3       0.029867
     70 H15B         4.5300     3.7870     2.5150 h1         1 ZM3       0.029867
     71 H16          6.5050     5.3970    -0.8940 h1         1 ZM3       0.029867
     72 H16A         6.1440     6.4230     0.5090 h1         1 ZM3       0.029867
     73 H16B         7.4630     5.2370     0.5990 h1         1 ZM3       0.029867
     74 H17          7.8850     2.9990     0.2860 hc         1 ZM3       0.057200
     75 H17A         7.0570     2.2720     1.6610 hc         1 ZM3       0.057200
     76 H18          7.2840     1.0660    -1.1640 h1         1 ZM3       0.029700
     77 H19          8.5490    -0.7580    -0.0130 hc         1 ZM3       0.046367
     78 H19A         9.3670     0.7920     0.2270 hc         1 ZM3       0.046367
     79 H19B         8.4080     0.0870     1.5400 hc         1 ZM3       0.046367
     80 H20          4.0400    -0.6390    -2.5370 hc         1 ZM3       0.066700
     81 H21          3.1940    -3.5240    -2.8940 hc         1 ZM3       0.040700
     82 H21A         3.7490    -2.3590    -4.0910 hc         1 ZM3       0.040700
     83 H21B         4.8710    -2.9430    -2.8520 hc         1 ZM3       0.040700
     84 H22          1.8520     0.0600    -2.3760 ha         1 ZM3       0.197000
     85 H23          0.9910    -2.9090    -2.3030 ha         1 ZM3       0.195000
     86 H25         -3.2430    -3.2580    -2.1950 h1         1 ZM3       0.066700
     87 H26         -4.4590    -1.7260    -3.6600 hc         1 ZM3       0.056200
     88 H26A        -3.0530    -0.7070    -3.8800 hc         1 ZM3       0.056200
     89 H27         -3.4250    -2.2260    -5.8360 hc         1 ZM3       0.035367
     90 H27A        -1.8670    -2.5870    -5.0680 hc         1 ZM3       0.035367
     91 H27B        -3.2670    -3.6470    -4.7820 hc         1 ZM3       0.035367
     92 H28         -3.1810    -0.3570    -1.4430 hc         1 ZM3       0.089700
     93 H29         -4.7520    -2.7510    -0.3960 h1         1 ZM3       0.047200
     94 H29A        -5.3690    -1.5380    -1.5240 h1         1 ZM3       0.047200
     95 H30         -6.4430     0.3170    -0.5860 h2         1 ZM3       0.050700
     96 H31         -5.5010     1.0700     2.2470 h1         1 ZM3       0.059700
     97 H32         -8.0730    -1.3690     3.0820 h1         1 ZM3       0.033367
     98 H32A        -7.0190    -1.7410     1.7110 h1         1 ZM3       0.033367
     99 H32B        -6.3310    -1.0400     3.2020 h1         1 ZM3       0.033367
    100 H33         -6.9250     2.9940     2.1730 h1         1 ZM3       0.053700
    101 H35         -4.7830     3.4850     1.2320 h1         1 ZM3       0.050700
    102 H36         -5.8320     2.4730    -1.4930 h1         1 ZM3       0.055700
    103 H37         -3.4200     2.6600    -2.1960 hc         1 ZM3       0.047700
    104 H37A        -4.0830     4.2480    -1.7950 hc         1 ZM3       0.047700
    105 H37B        -3.0140     3.4190    -0.6470 hc         1 ZM3       0.047700
    106 O1           1.5170    -0.6500     3.6310 o          1 ZM3      -0.532100
    107 O5          -0.8280    -0.1850    -2.6660 o          1 ZM3      -0.489000
@<TRIPOS>BOND
     1     1    24 1   
     2     1    25 1   
     3     1    26 1   
     4     2     3 2   
     5     2    38 1   
     6     2    47 1   
     7     3     5 1   
     8     3    48 1   
     9     4    20 1   
    10     4    22 1   
    11     5     7 2   
    12     5    49 1   
    13     6    23 1   
    14     6    50 1   
    15     7     9 1   
    16     7    51 1   
    17     8    22 1   
    18     8    28 1   
    19     9    10 1   
    20     9   106 2   
    21    10    12 1   
    22    10    14 1   
    23    10    52 1   
    24    11    34 1   
    25    11    35 1   
    26    12    53 1   
    27    12    54 1   
    28    12    55 1   
    29    13    39 1   
    30    13    40 1   
    31    14    16 1   
    32    14    56 1   
    33    14    57 1   
    34    15    41 1   
    35    15    42 1   
    36    16    18 1   
    37    16    20 1   
    38    16    58 1   
    39    17    43 1   
    40    17    59 1   
    41    18    60 1   
    42    18    61 1   
    43    18    62 1   
    44    19    44 1   
    45    19    63 1   
    46    20    30 1   
    47    20    64 1   
    48    21    40 1   
    49    21    45 1   
    50    22    23 1   
    51    22    65 1   
    52    23    24 1   
    53    23    66 1   
    54    24    27 1   
    55    24    67 1   
    56    25    68 1   
    57    25    69 1   
    58    25    70 1   
    59    26    71 1   
    60    26    72 1   
    61    26    73 1   
    62    27    28 1   
    63    27    74 1   
    64    27    75 1   
    65    28    29 1   
    66    28    76 1   
    67    29    77 1   
    68    29    78 1   
    69    29    79 1   
    70    30    31 1   
    71    30    32 1   
    72    30    80 1   
    73    31    81 1   
    74    31    82 1   
    75    31    83 1   
    76    32    33 2   
    77    32    84 1   
    78    33    34 1   
    79    33    85 1   
    80    34   107 2   
    81    35    36 1   
    82    35    38 1   
    83    35    86 1   
    84    36    37 1   
    85    36    87 1   
    86    36    88 1   
    87    37    89 1   
    88    37    90 1   
    89    37    91 1   
    90    38    39 1   
    91    38    92 1   
    92    39    93 1   
    93    39    94 1   
    94    40    41 1   
    95    40    95 1   
    96    41    43 1   
    97    41    96 1   
    98    42    97 1   
    99    42    98 1   
   100    42    99 1   
   101    43    44 1   
   102    43   100 1   
   103    44    45 1   
   104    44   101 1   
   105    45    46 1   
   106    45   102 1   
   107    46   103 1   
   108    46   104 1   
   109    46   105 1   
@<TRIPOS>SUBSTRUCTURE
     1 ZM3         1 TEMP              0 ****  ****    0 ROOT
