@<TRIPOS>MOLECULE
ZM3
  107   109     1     0     0
SMALL
abcg2


@<TRIPOS>ATOM
      1 N            6.5570     4.0120    -0.5500 n3         1 ZM3      -0.710600
      2 C1          -2.4200    -1.3670    -0.0770 c2         1 ZM3      -0.181200
      3 C2          -1.9670    -0.4840     0.8130 ce         1 ZM3      -0.187000
      4 O2           4.0670    -0.1290    -0.4040 os         1 ZM3      -0.453000
      5 C3          -1.0530    -0.7860     1.9020 ce         1 ZM3      -0.094000
      6 O3           4.5950     2.3260    -1.6850 oh         1 ZM3      -0.697000
      7 C4          -0.0110    -1.6230     1.8100 cf         1 ZM3      -0.324200
      8 O4           5.9600     0.0460     0.8070 os         1 ZM3      -0.483000
      9 C5           0.9210    -1.8490     2.9350 c          1 ZM3       0.573300
     10 C6           2.2120    -2.5480     2.5660 c3         1 ZM3      -0.160700
     11 O6          -1.4520    -1.9090    -2.5720 os         1 ZM3      -0.448100
     12 C7           3.0480    -2.9020     3.7860 c3         1 ZM3      -0.076100
     13 O7          -5.2980    -0.9670     0.2470 os         1 ZM3      -0.438000
     14 C8           2.9900    -1.6670     1.5500 c3         1 ZM3      -0.061400
     15 O8          -7.9090    -0.6360     1.3540 os         1 ZM3      -0.432000
     16 C9           3.3360    -2.3990     0.2510 c3         1 ZM3      -0.061700
     17 O9          -8.4620     1.7780     0.2730 oh         1 ZM3      -0.707000
     18 C10          4.2190    -3.6160     0.5180 c3         1 ZM3      -0.094100
     19 O10         -7.1950     4.0420     1.2110 oh         1 ZM3      -0.726000
     20 C11          4.0090    -1.4900    -0.8090 c3         1 ZM3       0.188300
     21 O11         -5.0330     1.2780     0.2020 os         1 ZM3      -0.491000
     22 C12          5.3290     0.4320    -0.3800 c6         1 ZM3       0.356300
     23 C13          5.1930     1.9530    -0.4710 c6         1 ZM3       0.157300
     24 C14          6.5900     2.5680    -0.4010 c6         1 ZM3       0.194500
     25 C15          5.9980     4.7390     0.5680 c3         1 ZM3       0.160100
     26 C16          7.8290     4.5650    -0.9570 c3         1 ZM3       0.160100
     27 C17          7.3070     2.0430     0.8500 c6         1 ZM3      -0.148400
     28 C18          7.2950     0.5210     0.8940 c6         1 ZM3       0.185300
     29 C19          7.8990    -0.0320     2.1660 c3         1 ZM3      -0.088100
     30 C20          3.3230    -1.5490    -2.1900 c3         1 ZM3      -0.058500
     31 C21          3.4160    -2.9400    -2.7990 c3         1 ZM3      -0.090100
     32 C22          1.9390    -0.9830    -2.1430 c2         1 ZM3      -0.119200
     33 C23          0.8250    -1.6400    -2.4650 ce         1 ZM3      -0.290200
     34 C24         -0.5010    -0.9910    -2.4240 c          1 ZM3       0.603300
     35 C25         -2.8490    -1.5750    -2.5580 c3         1 ZM3       0.193300
     36 C26         -3.2630    -0.7200    -3.7500 c3         1 ZM3      -0.104400
     37 C27         -2.7990    -1.2660    -5.0920 c3         1 ZM3      -0.084100
     38 C28         -3.3140    -0.9810    -1.2120 c3         1 ZM3      -0.086500
     39 C29         -4.7450    -1.4720    -0.9460 c3         1 ZM3       0.173600
     40 C30         -5.9730     0.2320     0.1650 c6         1 ZM3       0.371300
     41 C31         -6.9120     0.3500     1.3690 c6         1 ZM3       0.155300
     42 C32         -7.6480    -1.7740     2.1450 c3         1 ZM3       0.146900
     43 C33         -7.5810     1.7200     1.3700 c6         1 ZM3       0.176300
     44 C35         -6.5150     2.8110     1.2920 c6         1 ZM3       0.097300
     45 C36         -5.5990     2.5710     0.0860 c6         1 ZM3       0.154300
     46 C37         -4.4590     3.5650     0.0060 c3         1 ZM3      -0.095100
     47 H1          -2.1670    -2.4190     0.0310 ha         1 ZM3       0.175000
     48 H2          -2.3050     0.5460     0.7430 ha         1 ZM3       0.193000
     49 H3          -1.2000    -0.2390     2.8290 ha         1 ZM3       0.191000
     50 HO3          3.6970     1.9820    -1.6930 ho         1 ZM3       0.511000
     51 H4           0.2170    -2.1090     0.8670 ha         1 ZM3       0.184000
     52 H6           1.9100    -3.4740     2.0610 hc         1 ZM3       0.060700
     53 H7           2.5090    -3.5480     4.4790 hc         1 ZM3       0.039367
     54 H7A          3.9550    -3.4260     3.4830 hc         1 ZM3       0.039367
     55 H7B          3.3550    -2.0070     4.3290 hc         1 ZM3       0.039367
     56 H8           2.4090    -0.7740     1.3080 hc         1 ZM3       0.062700
     57 H8A          3.9040    -1.3060     2.0260 hc         1 ZM3       0.062700
     58 H9           2.3890    -2.7610    -0.1660 hc         1 ZM3       0.050700
     59 HO9         -8.8190     2.6710     0.2230 ho         1 ZM3       0.518000
     60 H10          3.7300    -4.3340     1.1790 hc         1 ZM3       0.036033
     61 H10A         4.4630    -4.1460    -0.4040 hc         1 ZM3       0.036033
     62 H10B         5.1580    -3.3140     0.9860 hc         1 ZM3       0.036033
     63 HO10        -6.5680     4.7600     1.3370 ho         1 ZM3       0.515000
     64 H11          5.0340    -1.8510    -0.9640 h1         1 ZM3       0.047700
     65 H12          5.9240     0.0830    -1.2470 h2         1 ZM3       0.023700
     66 H13          4.5940     2.2860     0.3900 h1         1 ZM3       0.055700
     67 H14          7.1380     2.1900    -1.2750 h1         1 ZM3       0.061700
     68 H15          6.6360     4.7530     1.4630 h1         1 ZM3       0.029867
     69 H15A         5.8310     5.7770     0.2750 h1         1 ZM3       0.029867
     70 H15B         5.0300     4.3290     0.8580 h1         1 ZM3       0.029867
     71 H16          8.2000     4.0400    -1.8390 h1         1 ZM3       0.029867
     72 H16A         7.7050     5.6160    -1.2260 h1         1 ZM3       0.029867
     73 H16B         8.6120     4.5190    -0.1850 h1         1 ZM3       0.029867
     74 H17          8.3440     2.3890     0.8630 hc         1 ZM3       0.057200
     75 H17A         6.8300     2.4290     1.7560 hc         1 ZM3       0.057200
     76 H18          7.8660     0.1400     0.0310 h1         1 ZM3       0.029700
     77 H19          7.8520    -1.1220     2.1840 hc         1 ZM3       0.046367
     78 H19A         8.9470     0.2580     2.2410 hc         1 ZM3       0.046367
     79 H19B         7.3790     0.3500     3.0460 hc         1 ZM3       0.046367
     80 H20          3.9030    -0.8720    -2.8320 hc         1 ZM3       0.066700
     81 H21          2.8430    -3.6830    -2.2430 hc         1 ZM3       0.040700
     82 H21A         3.0500    -2.9410    -3.8260 hc         1 ZM3       0.040700
     83 H21B         4.4540    -3.2720    -2.8200 hc         1 ZM3       0.040700
     84 H22          1.8560     0.0540    -1.8310 ha         1 ZM3       0.197000
     85 H23          0.8500    -2.6810    -2.7630 ha         1 ZM3       0.195000
     86 H25         -3.3060    -2.5630    -2.6790 h1         1 ZM3       0.066700
     87 H26         -4.3560    -0.6810    -3.7430 hc         1 ZM3       0.056200
     88 H26A        -2.9230     0.3070    -3.6170 hc         1 ZM3       0.056200
     89 H27         -3.2220    -0.6780    -5.9070 hc         1 ZM3       0.035367
     90 H27A        -1.7140    -1.2320    -5.1990 hc         1 ZM3       0.035367
     91 H27B        -3.1150    -2.3010    -5.2350 hc         1 ZM3       0.035367
     92 H28         -3.3250     0.1070    -1.2900 hc         1 ZM3       0.089700
     93 H29         -4.7370    -2.5610    -0.8460 h1         1 ZM3       0.047200
     94 H29A        -5.3930    -1.2310    -1.7980 h1         1 ZM3       0.047200
     95 H30         -6.5540     0.2860    -0.7730 h2         1 ZM3       0.050700
     96 H31         -6.2970     0.2830     2.2790 h1         1 ZM3       0.059700
     97 H32         -8.5540    -2.3790     2.1510 h1         1 ZM3       0.033367
     98 H32A        -6.8280    -2.3820     1.7570 h1         1 ZM3       0.033367
     99 H32B        -7.4130    -1.5030     3.1800 h1         1 ZM3       0.033367
    100 H33         -8.1300     1.8350     2.3170 h1         1 ZM3       0.053700
    101 H35         -5.9020     2.7530     2.2040 h1         1 ZM3       0.050700
    102 H36         -6.2020     2.6370    -0.8320 h1         1 ZM3       0.055700
    103 H37         -3.8210     3.3550    -0.8530 hc         1 ZM3       0.047700
    104 H37A        -4.8340     4.5810    -0.1150 hc         1 ZM3       0.047700
    105 H37B        -3.8430     3.5300     0.9060 hc         1 ZM3       0.047700
    106 O1           0.6760    -1.4720     4.0640 o          1 ZM3      -0.532100
    107 O5          -0.7040     0.1900    -2.2820 o          1 ZM3      -0.489000
@<TRIPOS>BOND
     1     1    24 1   
     2     1    25 1   
     3     1    26 1   
     4     2     3 2   
     5     2    38 1   
     6     2    47 1   
     7     3     5 1   
     8     3    48 1   
     9     4    20 1   
    10     4    22 1   
    11     5     7 2   
    12     5    49 1   
    13     6    23 1   
    14     6    50 1   
    15     7     9 1   
    16     7    51 1   
    17     8    22 1   
    18     8    28 1   
    19     9    10 1   
    20     9   106 2   
    21    10    12 1   
    22    10    14 1   
    23    10    52 1   
    24    11    34 1   
    25    11    35 1   
    26    12    53 1   
    27    12    54 1   
    28    12    55 1   
    29    13    39 1   
    30    13    40 1   
    31    14    16 1   
    32    14    56 1   
    33    14    57 1   
    34    15    41 1   
    35    15    42 1   
    36    16    18 1   
    37    16    20 1   
    38    16    58 1   
    39    17    43 1   
    40    17    59 1   
    41    18    60 1   
    42    18    61 1   
    43    18    62 1   
    44    19    44 1   
    45    19    63 1   
    46    20    30 1   
    47    20    64 1   
    48    21    40 1   
    49    21    45 1   
    50    22    23 1   
    51    22    65 1   
    52    23    24 1   
    53    23    66 1   
    54    24    27 1   
    55    24    67 1   
    56    25    68 1   
    57    25    69 1   
    58    25    70 1   
    59    26    71 1   
    60    26    72 1   
    61    26    73 1   
    62    27    28 1   
    63    27    74 1   
    64    27    75 1   
    65    28    29 1   
    66    28    76 1   
    67    29    77 1   
    68    29    78 1   
    69    29    79 1   
    70    30    31 1   
    71    30    32 1   
    72    30    80 1   
    73    31    81 1   
    74    31    82 1   
    75    31    83 1   
    76    32    33 2   
    77    32    84 1   
    78    33    34 1   
    79    33    85 1   
    80    34   107 2   
    81    35    36 1   
    82    35    38 1   
    83    35    86 1   
    84    36    37 1   
    85    36    87 1   
    86    36    88 1   
    87    37    89 1   
    88    37    90 1   
    89    37    91 1   
    90    38    39 1   
    91    38    92 1   
    92    39    93 1   
    93    39    94 1   
    94    40    41 1   
    95    40    95 1   
    96    41    43 1   
    97    41    96 1   
    98    42    97 1   
    99    42    98 1   
   100    42    99 1   
   101    43    44 1   
   102    43   100 1   
   103    44    45 1   
   104    44   101 1   
   105    45    46 1   
   106    45   102 1   
   107    46   103 1   
   108    46   104 1   
   109    46   105 1   
@<TRIPOS>SUBSTRUCTURE
     1 ZM3         1 TEMP              0 ****  ****    0 ROOT
