@<TRIPOS>MOLECULE
ZM5
   99    98     1     0     0
SMALL
abcg2


@<TRIPOS>ATOM
      1 C1           7.6190     5.8350    -4.8200 c3         1 ZM5      -0.089100
      2 C2           7.1960     4.7830    -3.8050 c3         1 ZM5      -0.076400
      3 C3           8.3450     3.8650    -3.4010 c3         1 ZM5      -0.074400
      4 C4           7.9420     2.7200    -2.4750 c3         1 ZM5      -0.074400
      5 C5           7.4490     3.1680    -1.1030 c3         1 ZM5      -0.073400
      6 C6           7.1820     2.0170    -0.1350 c3         1 ZM5      -0.073400
      7 C7           6.0850     1.0640    -0.5970 c3         1 ZM5      -0.077400
      8 C8           5.7010     0.0270     0.4510 c3         1 ZM5      -0.075400
      9 C9           4.6230    -0.9310    -0.0460 c3         1 ZM5      -0.074400
     10 C10          4.2060    -2.0000     0.9580 c3         1 ZM5      -0.072400
     11 C11          3.5490    -1.4450     2.2200 c3         1 ZM5      -0.077400
     12 C12          2.7960    -2.4980     3.0270 c3         1 ZM5      -0.076400
     13 C13          3.6850    -3.5720     3.6440 c3         1 ZM5      -0.076400
     14 C14          2.9540    -4.5940     4.5140 c3         1 ZM5      -0.067400
     15 C15          1.9730    -5.4870     3.7550 c3         1 ZM5      -0.136400
     16 C16          0.6400    -4.8470     3.4710 c          1 ZM5       0.588100
     17 O1           0.0460    -4.1290     4.2340 o          1 ZM5      -0.484000
     18 O2           0.1620    -5.2070     2.2770 os         1 ZM5      -0.446100
     19 C17         -1.0880    -4.6680     1.8520 c3         1 ZM5       0.163600
     20 C18         -0.8730    -3.3000     1.2100 c3         1 ZM5       0.146300
     21 C19          0.0340    -3.3230    -0.0050 c3         1 ZM5       0.144600
     22 O3          -0.4640    -4.2440    -0.9410 oh         1 ZM5      -0.652000
     23 O4          -2.1830    -2.8530     0.8470 os         1 ZM5      -0.439100
     24 C20         -2.4530    -1.5470     0.9010 c          1 ZM5       0.597100
     25 O5          -1.6510    -0.7180     1.2490 o          1 ZM5      -0.488000
     26 C21         -3.8580    -1.2530     0.4620 c3         1 ZM5      -0.137400
     27 C22         -4.9360    -2.0050     1.2490 c3         1 ZM5      -0.066400
     28 C23         -6.3400    -1.5400     0.8720 c3         1 ZM5      -0.077400
     29 C24         -6.7470    -1.9020    -0.5510 c3         1 ZM5      -0.075400
     30 C25         -8.1160    -1.3650    -0.9630 c3         1 ZM5      -0.072400
     31 C26         -8.2620     0.1550    -0.8810 c3         1 ZM5      -0.075400
     32 C27         -7.2050     0.9210    -1.6680 c3         1 ZM5      -0.074400
     33 C28         -7.3970     2.4350    -1.6700 c3         1 ZM5      -0.075400
     34 C29         -7.3010     3.0730    -0.2850 c3         1 ZM5      -0.074400
     35 C30         -7.2400     4.6060    -0.3100 c3         1 ZM5      -0.073400
     36 C31         -5.8290     5.1860    -0.2160 c3         1 ZM5      -0.074400
     37 C32         -4.8800     4.7540    -1.3250 c3         1 ZM5      -0.088100
     38 H1           6.7880     6.4870    -5.0930 hc         1 ZM5       0.031033
     39 H2           8.4170     6.4660    -4.4240 hc         1 ZM5       0.031033
     40 H3           7.9910     5.3720    -5.7360 hc         1 ZM5       0.031033
     41 H4           6.7850     5.2790    -2.9220 hc         1 ZM5       0.037200
     42 H5           6.3820     4.1790    -4.2200 hc         1 ZM5       0.037200
     43 H6           8.7930     3.4440    -4.3070 hc         1 ZM5       0.036700
     44 H7           9.1330     4.4600    -2.9250 hc         1 ZM5       0.036700
     45 H8           7.1730     2.1200    -2.9710 hc         1 ZM5       0.037200
     46 H9           8.8010     2.0540    -2.3380 hc         1 ZM5       0.037200
     47 H10          8.1950     3.8390    -0.6620 hc         1 ZM5       0.038200
     48 H11          6.5330     3.7590    -1.2060 hc         1 ZM5       0.038200
     49 H12          8.1070     1.4540     0.0290 hc         1 ZM5       0.036700
     50 H13          6.9050     2.4330     0.8390 hc         1 ZM5       0.036700
     51 H14          5.1960     1.6440    -0.8700 hc         1 ZM5       0.037200
     52 H15          6.3990     0.5480    -1.5100 hc         1 ZM5       0.037200
     53 H16          6.5880    -0.5460     0.7440 hc         1 ZM5       0.038200
     54 H17          5.3600     0.5420     1.3540 hc         1 ZM5       0.038200
     55 H18          3.7390    -0.3530    -0.3400 hc         1 ZM5       0.036700
     56 H19          4.9800    -1.4200    -0.9580 hc         1 ZM5       0.036700
     57 H20          3.5000    -2.6810     0.4680 hc         1 ZM5       0.034700
     58 H21          5.0760    -2.6090     1.2220 hc         1 ZM5       0.034700
     59 H22          4.2960    -0.9600     2.8570 hc         1 ZM5       0.042700
     60 H23          2.8410    -0.6600     1.9320 hc         1 ZM5       0.042700
     61 H24          2.2250    -2.0070     3.8210 hc         1 ZM5       0.040700
     62 H25          2.0600    -2.9580     2.3610 hc         1 ZM5       0.040700
     63 H26          4.2280    -4.1070     2.8580 hc         1 ZM5       0.039700
     64 H27          4.4480    -3.0840     4.2580 hc         1 ZM5       0.039700
     65 H28          3.6990    -5.2430     4.9790 hc         1 ZM5       0.053700
     66 H29          2.4380    -4.0910     5.3370 hc         1 ZM5       0.053700
     67 H30          2.4240    -5.8500     2.8300 hc         1 ZM5       0.070200
     68 H31          1.7550    -6.3750     4.3580 hc         1 ZM5       0.070200
     69 H32         -1.4910    -5.3810     1.1360 h1         1 ZM5       0.080200
     70 H33         -1.7860    -4.5850     2.6870 h1         1 ZM5       0.080200
     71 H34         -0.4380    -2.6170     1.9440 h1         1 ZM5       0.083700
     72 H35          0.0950    -2.3070    -0.4160 h1         1 ZM5       0.033700
     73 H36          1.0470    -3.5790     0.3330 h1         1 ZM5       0.033700
     74 H37          0.1330    -4.2620    -1.6950 ho         1 ZM5       0.444000
     75 H38         -4.0160    -0.1770     0.5500 hc         1 ZM5       0.073200
     76 H39         -3.9310    -1.5000    -0.6010 hc         1 ZM5       0.073200
     77 H40         -4.8440    -3.0810     1.0820 hc         1 ZM5       0.051200
     78 H41         -4.7810    -1.8400     2.3190 hc         1 ZM5       0.051200
     79 H42         -7.0590    -1.9780     1.5700 hc         1 ZM5       0.042700
     80 H43         -6.3980    -0.4570     1.0190 hc         1 ZM5       0.042700
     81 H44         -5.9960    -1.5440    -1.2610 hc         1 ZM5       0.037700
     82 H45         -6.7470    -2.9920    -0.6510 hc         1 ZM5       0.037700
     83 H46         -8.3190    -1.6870    -1.9890 hc         1 ZM5       0.037700
     84 H47         -8.8890    -1.8290    -0.3420 hc         1 ZM5       0.037700
     85 H48         -9.2540     0.4310    -1.2560 hc         1 ZM5       0.037700
     86 H49         -8.2460     0.4700     0.1660 hc         1 ZM5       0.037700
     87 H50         -6.2100     0.7040    -1.2650 hc         1 ZM5       0.036700
     88 H51         -7.1970     0.5570    -2.7010 hc         1 ZM5       0.036700
     89 H52         -6.6490     2.8810    -2.3310 hc         1 ZM5       0.038200
     90 H53         -8.3700     2.6840    -2.1080 hc         1 ZM5       0.038200
     91 H54         -8.1590     2.7540     0.3110 hc         1 ZM5       0.036700
     92 H55         -6.4190     2.6790     0.2360 hc         1 ZM5       0.036700
     93 H56         -7.7270     4.9760    -1.2200 hc         1 ZM5       0.036200
     94 H57         -7.8230     5.0100     0.5220 hc         1 ZM5       0.036200
     95 H58         -5.8980     6.2780    -0.2090 hc         1 ZM5       0.035700
     96 H59         -5.3990     4.9070     0.7510 hc         1 ZM5       0.035700
     97 H60         -3.9100     5.2420    -1.2220 hc         1 ZM5       0.031033
     98 H61         -4.7040     3.6770    -1.3110 hc         1 ZM5       0.031033
     99 H62         -5.2760     5.0100    -2.3110 hc         1 ZM5       0.031033
@<TRIPOS>BOND
     1     1     2 1   
     2     1    38 1   
     3     1    39 1   
     4     1    40 1   
     5     2     3 1   
     6     2    41 1   
     7     2    42 1   
     8     3     4 1   
     9     3    43 1   
    10     3    44 1   
    11     4     5 1   
    12     4    45 1   
    13     4    46 1   
    14     5     6 1   
    15     5    47 1   
    16     5    48 1   
    17     6     7 1   
    18     6    49 1   
    19     6    50 1   
    20     7     8 1   
    21     7    51 1   
    22     7    52 1   
    23     8     9 1   
    24     8    53 1   
    25     8    54 1   
    26     9    10 1   
    27     9    55 1   
    28     9    56 1   
    29    10    11 1   
    30    10    57 1   
    31    10    58 1   
    32    11    12 1   
    33    11    59 1   
    34    11    60 1   
    35    12    13 1   
    36    12    61 1   
    37    12    62 1   
    38    13    14 1   
    39    13    63 1   
    40    13    64 1   
    41    14    15 1   
    42    14    65 1   
    43    14    66 1   
    44    15    16 1   
    45    15    67 1   
    46    15    68 1   
    47    16    17 2   
    48    16    18 1   
    49    18    19 1   
    50    19    20 1   
    51    19    69 1   
    52    19    70 1   
    53    20    21 1   
    54    20    23 1   
    55    20    71 1   
    56    21    22 1   
    57    21    72 1   
    58    21    73 1   
    59    22    74 1   
    60    23    24 1   
    61    24    25 2   
    62    24    26 1   
    63    26    27 1   
    64    26    75 1   
    65    26    76 1   
    66    27    28 1   
    67    27    77 1   
    68    27    78 1   
    69    28    29 1   
    70    28    79 1   
    71    28    80 1   
    72    29    30 1   
    73    29    81 1   
    74    29    82 1   
    75    30    31 1   
    76    30    83 1   
    77    30    84 1   
    78    31    32 1   
    79    31    85 1   
    80    31    86 1   
    81    32    33 1   
    82    32    87 1   
    83    32    88 1   
    84    33    34 1   
    85    33    89 1   
    86    33    90 1   
    87    34    35 1   
    88    34    91 1   
    89    34    92 1   
    90    35    36 1   
    91    35    93 1   
    92    35    94 1   
    93    36    37 1   
    94    36    95 1   
    95    36    96 1   
    96    37    97 1   
    97    37    98 1   
    98    37    99 1   
@<TRIPOS>SUBSTRUCTURE
     1 ZM5         1 TEMP              0 ****  ****    0 ROOT
