@<TRIPOS>MOLECULE
ZM5
   99    98     1     0     0
SMALL
No Charge or Current Charge


@<TRIPOS>ATOM
      1 C1           9.5810     5.9740    -3.8760 c3         1 ZM5      -0.089100
      2 C2           8.8370     4.8760    -3.0910 c3         1 ZM5      -0.076400
      3 C3           9.7590     3.7110    -2.6630 c3         1 ZM5      -0.074400
      4 C4           9.0320     2.5490    -1.9460 c3         1 ZM5      -0.074400
      5 C5           8.4200     2.9280    -0.5740 c3         1 ZM5      -0.073400
      6 C6           7.8390     1.7320     0.2180 c3         1 ZM5      -0.073400
      7 C7           6.6160     1.0580    -0.4480 c3         1 ZM5      -0.077400
      8 C8           6.0120    -0.0750     0.4100 c3         1 ZM5      -0.075400
      9 C9           4.7890    -0.7490    -0.2550 c3         1 ZM5      -0.074400
     10 C10          4.2080    -1.9440     0.5360 c3         1 ZM5      -0.072400
     11 C11          3.6020    -1.5660     1.9100 c3         1 ZM5      -0.077400
     12 C12          2.8640    -2.7250     2.6200 c3         1 ZM5      -0.076400
     13 C13          3.7690    -3.9170     3.0130 c3         1 ZM5      -0.076400
     14 C14          3.0850    -4.9930     3.8930 c3         1 ZM5      -0.067400
     15 C15          2.0430    -5.8960     3.1790 c3         1 ZM5      -0.136400
     16 C16          0.7240    -5.1900     2.8460 c          1 ZM5       0.588100
     17 O1          -0.0470    -4.7710     3.6980 o          1 ZM5      -0.484000
     18 O2           0.4130    -5.3000     1.5130 os         1 ZM5      -0.446100
     19 C17         -0.8420    -4.7560     1.0380 c3         1 ZM5       0.163600
     20 C18         -0.7480    -3.2110     0.9360 c3         1 ZM5       0.146300
     21 C19          0.1590    -2.7410    -0.2460 c3         1 ZM5       0.144600
     22 O3          -0.4300    -3.0340    -1.5270 oh         1 ZM5      -0.652000
     23 O4          -2.0960    -2.7100     0.7560 os         1 ZM5      -0.439100
     24 C20         -2.3360    -1.3690     0.9110 c          1 ZM5       0.597100
     25 O5          -1.5130    -0.5580     1.3160 o          1 ZM5      -0.488000
     26 C21         -3.8090    -1.0310     0.6800 c3         1 ZM5      -0.137400
     27 C22         -4.6250    -1.1480     1.9920 c3         1 ZM5      -0.066400
     28 C23         -6.1020    -0.7050     1.8650 c3         1 ZM5      -0.077400
     29 C24         -6.9570    -1.5970     0.9310 c3         1 ZM5      -0.075400
     30 C25         -8.4650    -1.2410     0.9120 c3         1 ZM5      -0.072400
     31 C26         -8.8130     0.1990     0.4570 c3         1 ZM5      -0.075400
     32 C27         -8.3400     0.5470    -0.9770 c3         1 ZM5      -0.074400
     33 C28         -8.8080     1.9300    -1.4860 c3         1 ZM5      -0.075400
     34 C29         -8.2210     3.1310    -0.7000 c3         1 ZM5      -0.074400
     35 C30         -8.5920     4.5240    -1.2730 c3         1 ZM5      -0.073400
     36 C31         -7.5970     5.1170    -2.3030 c3         1 ZM5      -0.074400
     37 C32         -7.4400     4.3200    -3.6130 c3         1 ZM5      -0.088100
     38 H1           8.8900     6.7780    -4.1560 hc         1 ZM5       0.031033
     39 H2          10.3840     6.4080    -3.2690 hc         1 ZM5       0.031033
     40 H3          10.0200     5.5650    -4.7940 hc         1 ZM5       0.031033
     41 H4           8.3790     5.3320    -2.2050 hc         1 ZM5       0.037200
     42 H5           8.0200     4.4860    -3.7110 hc         1 ZM5       0.037200
     43 H6          10.2540     3.3080    -3.5560 hc         1 ZM5       0.036700
     44 H7          10.5550     4.0960    -2.0120 hc         1 ZM5       0.036700
     45 H8           8.2480     2.1620    -2.6080 hc         1 ZM5       0.037200
     46 H9           9.7490     1.7320    -1.7980 hc         1 ZM5       0.037200
     47 H10          9.1960     3.4020     0.0390 hc         1 ZM5       0.038200
     48 H11          7.6300     3.6750    -0.7140 hc         1 ZM5       0.038200
     49 H12          8.6270     0.9850     0.3730 hc         1 ZM5       0.036700
     50 H13          7.5460     2.0890     1.2130 hc         1 ZM5       0.036700
     51 H14          5.8450     1.8160    -0.6380 hc         1 ZM5       0.037200
     52 H15          6.9080     0.6450    -1.4210 hc         1 ZM5       0.037200
     53 H16          6.7820    -0.8330     0.6000 hc         1 ZM5       0.038200
     54 H17          5.7190     0.3380     1.3830 hc         1 ZM5       0.038200
     55 H18          4.0010    -0.0010    -0.4100 hc         1 ZM5       0.036700
     56 H19          5.0820    -1.1050    -1.2510 hc         1 ZM5       0.036700
     57 H20          3.4310    -2.4170    -0.0760 hc         1 ZM5       0.034700
     58 H21          4.9970    -2.6940     0.6740 hc         1 ZM5       0.034700
     59 H22          4.3910    -1.1910     2.5740 hc         1 ZM5       0.042700
     60 H23          2.8920    -0.7410     1.7690 hc         1 ZM5       0.042700
     61 H24          2.3840    -2.3280     3.5240 hc         1 ZM5       0.040700
     62 H25          2.0630    -3.0740     1.9640 hc         1 ZM5       0.040700
     63 H26          4.1680    -4.3960     2.1100 hc         1 ZM5       0.039700
     64 H27          4.6330    -3.5260     3.5650 hc         1 ZM5       0.039700
     65 H28          3.8740    -5.6470     4.2880 hc         1 ZM5       0.053700
     66 H29          2.6250    -4.5170     4.7680 hc         1 ZM5       0.053700
     67 H30          2.4870    -6.3050     2.2630 hc         1 ZM5       0.070200
     68 H31          1.8040    -6.7280     3.8520 hc         1 ZM5       0.070200
     69 H32         -1.0770    -5.1600     0.0450 h1         1 ZM5       0.080200
     70 H33         -1.6690    -5.0350     1.7050 h1         1 ZM5       0.080200
     71 H34         -0.3300    -2.8280     1.8770 h1         1 ZM5       0.083700
     72 H35          0.3450    -1.6620    -0.1540 h1         1 ZM5       0.033700
     73 H36          1.1340    -3.2390    -0.1620 h1         1 ZM5       0.033700
     74 H37          0.1870    -2.6990    -2.2140 ho         1 ZM5       0.444000
     75 H38         -3.8860    -0.0070     0.2990 hc         1 ZM5       0.073200
     76 H39         -4.2220    -1.7460    -0.0400 hc         1 ZM5       0.073200
     77 H40         -4.5850    -2.1820     2.3580 hc         1 ZM5       0.051200
     78 H41         -4.1460    -0.5280     2.7610 hc         1 ZM5       0.051200
     79 H42         -6.5520    -0.7080     2.8650 hc         1 ZM5       0.042700
     80 H43         -6.1280     0.3330     1.5120 hc         1 ZM5       0.042700
     81 H44         -6.5640    -1.5510    -0.0910 hc         1 ZM5       0.037700
     82 H45         -6.8550    -2.6410     1.2520 hc         1 ZM5       0.037700
     83 H46         -8.9830    -1.9520     0.2560 hc         1 ZM5       0.037700
     84 H47         -8.8760    -1.3980     1.9170 hc         1 ZM5       0.037700
     85 H48         -9.9020     0.3200     0.5070 hc         1 ZM5       0.037700
     86 H49         -8.3920     0.9140     1.1730 hc         1 ZM5       0.037700
     87 H50         -7.2450     0.5080    -1.0260 hc         1 ZM5       0.036700
     88 H51         -8.7130    -0.2200    -1.6660 hc         1 ZM5       0.036700
     89 H52         -8.5360     2.0100    -2.5440 hc         1 ZM5       0.038200
     90 H53         -9.9040     1.9760    -1.4480 hc         1 ZM5       0.038200
     91 H54         -8.5950     3.0840     0.3300 hc         1 ZM5       0.036700
     92 H55         -7.1300     3.0380    -0.6370 hc         1 ZM5       0.036700
     93 H56         -9.5990     4.4900    -1.7080 hc         1 ZM5       0.036200
     94 H57         -8.6500     5.2280    -0.4340 hc         1 ZM5       0.036200
     95 H58         -7.9320     6.1300    -2.5570 hc         1 ZM5       0.035700
     96 H59         -6.6120     5.2270    -1.8330 hc         1 ZM5       0.035700
     97 H60         -6.8450     4.8930    -4.3350 hc         1 ZM5       0.031033
     98 H61         -6.9210     3.3710    -3.4350 hc         1 ZM5       0.031033
     99 H62         -8.4170     4.1120    -4.0650 hc         1 ZM5       0.031033
@<TRIPOS>BOND
     1     1     2 1   
     2     1    38 1   
     3     1    39 1   
     4     1    40 1   
     5     2     3 1   
     6     2    41 1   
     7     2    42 1   
     8     3     4 1   
     9     3    43 1   
    10     3    44 1   
    11     4     5 1   
    12     4    45 1   
    13     4    46 1   
    14     5     6 1   
    15     5    47 1   
    16     5    48 1   
    17     6     7 1   
    18     6    49 1   
    19     6    50 1   
    20     7     8 1   
    21     7    51 1   
    22     7    52 1   
    23     8     9 1   
    24     8    53 1   
    25     8    54 1   
    26     9    10 1   
    27     9    55 1   
    28     9    56 1   
    29    10    11 1   
    30    10    57 1   
    31    10    58 1   
    32    11    12 1   
    33    11    59 1   
    34    11    60 1   
    35    12    13 1   
    36    12    61 1   
    37    12    62 1   
    38    13    14 1   
    39    13    63 1   
    40    13    64 1   
    41    14    15 1   
    42    14    65 1   
    43    14    66 1   
    44    15    16 1   
    45    15    67 1   
    46    15    68 1   
    47    16    17 2   
    48    16    18 1   
    49    18    19 1   
    50    19    20 1   
    51    19    69 1   
    52    19    70 1   
    53    20    21 1   
    54    20    23 1   
    55    20    71 1   
    56    21    22 1   
    57    21    72 1   
    58    21    73 1   
    59    22    74 1   
    60    23    24 1   
    61    24    25 2   
    62    24    26 1   
    63    26    27 1   
    64    26    75 1   
    65    26    76 1   
    66    27    28 1   
    67    27    77 1   
    68    27    78 1   
    69    28    29 1   
    70    28    79 1   
    71    28    80 1   
    72    29    30 1   
    73    29    81 1   
    74    29    82 1   
    75    30    31 1   
    76    30    83 1   
    77    30    84 1   
    78    31    32 1   
    79    31    85 1   
    80    31    86 1   
    81    32    33 1   
    82    32    87 1   
    83    32    88 1   
    84    33    34 1   
    85    33    89 1   
    86    33    90 1   
    87    34    35 1   
    88    34    91 1   
    89    34    92 1   
    90    35    36 1   
    91    35    93 1   
    92    35    94 1   
    93    36    37 1   
    94    36    95 1   
    95    36    96 1   
    96    37    97 1   
    97    37    98 1   
    98    37    99 1   
@<TRIPOS>SUBSTRUCTURE
     1 ZM5         1 TEMP              0 ****  ****    0 ROOT
