@<TRIPOS>MOLECULE
ZM6
   42    44     1     0     0
SMALL
abcg2


@<TRIPOS>ATOM
      1 N1         -22.0820    24.4520     7.8370 n          1 ZM6      -0.410800
      2 N3         -18.7410    27.5630     5.7060 ns         1 ZM6      -0.505900
      3 C4         -22.9910    22.6940     9.2900 ca         1 ZM6      -0.127600
      4 C5         -21.9540    21.7880     9.4820 ca         1 ZM6      -0.077000
      5 C6         -21.9650    20.9390    10.5820 ca         1 ZM6       0.116000
      6 C7         -23.0510    23.5450     8.0530 c          1 ZM6       0.610700
      7 C8         -22.0890    25.1800     6.5610 c6         1 ZM6       0.088500
      8 C10        -19.6920    24.8940     8.0320 c6         1 ZM6       0.100500
      9 C13        -17.5550    28.2960     5.2750 c3         1 ZM6       0.135000
     10 C15        -17.1120    30.6410     4.2540 cx         1 ZM6      -0.127900
     11 C1         -23.0090    21.0050    11.5040 ca         1 ZM6       0.133000
     12 C11        -21.0160    24.8160     8.7700 c6         1 ZM6       0.088500
     13 C12        -18.6200    26.4830     6.5380 c          1 ZM6       0.646100
     14 C14        -17.9490    29.3980     4.3320 cx         1 ZM6      -0.150700
     15 C16        -18.4770    30.6940     4.8890 cx         1 ZM6      -0.127900
     16 C2         -24.0470    21.9090    11.3080 ca         1 ZM6      -0.100000
     17 C3         -24.0430    22.7420    10.2010 ca         1 ZM6      -0.062000
     18 C9         -21.1120    26.3470     6.5800 c6         1 ZM6       0.100500
     19 N2         -19.7790    25.9170     6.9890 n          1 ZM6      -0.440800
     20 O1         -23.9820    23.3770     7.2580 o          1 ZM6      -0.594100
     21 O2         -17.5130    26.0210     6.8480 o          1 ZM6      -0.643100
     22 CL1        -23.0460    19.9720    12.9010 cl         1 ZM6      -0.171000
     23 CL2        -20.6590    19.8090    10.7790 cl         1 ZM6      -0.170000
     24 H12        -19.5840    28.1110     5.7540 hn         1 ZM6       0.300500
     25 H3         -21.1360    21.7270     8.7770 ha         1 ZM6       0.139000
     26 H5         -21.8260    24.4880     5.7580 h1         1 ZM6       0.063700
     27 H4         -23.0920    25.5550     6.3610 h1         1 ZM6       0.063700
     28 H9         -19.4490    23.9170     7.6030 h1         1 ZM6       0.057950
     29 H8         -18.8990    25.1560     8.7310 h1         1 ZM6       0.057950
     30 H13        -17.0210    28.7160     6.1350 h1         1 ZM6       0.055200
     31 H14        -16.8720    27.5990     4.7850 h1         1 ZM6       0.055200
     32 H16        -16.9800    31.1050     3.2860 hc         1 ZM6       0.073700
     33 H11        -20.9530    24.0900     9.5720 h1         1 ZM6       0.063700
     34 H10        -21.2470    25.7840     9.2240 h1         1 ZM6       0.063700
     35 H15        -18.3960    29.0590     3.4040 hc         1 ZM6       0.086700
     36 H18        -18.5250    30.7890     5.9670 hc         1 ZM6       0.073700
     37 H19        -19.2720    31.1960     4.3530 hc         1 ZM6       0.073700
     38 H1         -24.8540    21.9520    12.0270 ha         1 ZM6       0.138000
     39 H2         -24.8600    23.4350    10.0470 ha         1 ZM6       0.135000
     40 H6         -21.0710    26.7350     5.5640 h1         1 ZM6       0.057950
     41 H7         -21.4880    27.1460     7.2290 h1         1 ZM6       0.057950
     42 H17        -16.2500    30.7080     4.9070 hc         1 ZM6       0.073700
@<TRIPOS>BOND
     1     1     6 1   
     2     1     7 1   
     3     1    12 1   
     4     2     9 1   
     5     2    13 1   
     6     2    24 1   
     7     3     4 ar  
     8     3     6 1   
     9     3    17 ar  
    10     4     5 ar  
    11     4    25 1   
    12     5    11 ar  
    13     5    23 1   
    14     6    20 2   
    15     7    18 1   
    16     7    26 1   
    17     7    27 1   
    18     8    12 1   
    19     8    19 1   
    20     8    28 1   
    21     8    29 1   
    22     9    14 1   
    23     9    30 1   
    24     9    31 1   
    25    10    14 1   
    26    10    15 1   
    27    10    32 1   
    28    10    42 1   
    29    11    16 ar  
    30    11    22 1   
    31    12    33 1   
    32    12    34 1   
    33    13    19 1   
    34    13    21 2   
    35    14    15 1   
    36    14    35 1   
    37    15    36 1   
    38    15    37 1   
    39    16    17 ar  
    40    16    38 1   
    41    17    39 1   
    42    18    19 1   
    43    18    40 1   
    44    18    41 1   
@<TRIPOS>SUBSTRUCTURE
     1 ZM6         1 TEMP              0 ****  ****    0 ROOT
