@<TRIPOS>MOLECULE
ZM6
   42    44     1     0     0
SMALL
No Charge or Current Charge


@<TRIPOS>ATOM
      1 N1         -22.1810    24.6630     8.0760 n          1 ZM6      -0.410800
      2 N3         -18.5820    27.5900     5.8520 ns         1 ZM6      -0.505900
      3 C4         -23.1400    22.6870     9.3150 ca         1 ZM6      -0.127600
      4 C5         -21.9290    21.9610     9.4080 ca         1 ZM6      -0.077000
      5 C6         -21.8110    20.8710    10.2870 ca         1 ZM6       0.116000
      6 C7         -23.3000    23.8450     8.3540 c          1 ZM6       0.610700
      7 C8         -22.2070    25.5950     6.9100 c6         1 ZM6       0.088500
      8 C10        -19.7770    25.2480     8.5070 c6         1 ZM6       0.100500
      9 C13        -17.4190    28.1980     5.2170 c3         1 ZM6       0.135000
     10 C15        -17.0030    30.3210     3.7060 cx         1 ZM6      -0.127900
     11 C1         -22.9130    20.4800    11.0750 ca         1 ZM6       0.133000
     12 C11        -21.1840    25.0310     9.1160 c6         1 ZM6       0.088500
     13 C12        -18.5170    26.6460     6.8440 c          1 ZM6       0.646100
     14 C14        -17.8590    29.1410     4.1060 cx         1 ZM6      -0.150700
     15 C16        -18.3170    30.5480     4.4170 cx         1 ZM6      -0.127900
     16 C2         -24.1270    21.1760    10.9680 ca         1 ZM6      -0.100000
     17 C3         -24.2440    22.2660    10.0880 ca         1 ZM6      -0.062000
     18 C9         -21.0790    26.6680     6.8710 c6         1 ZM6       0.100500
     19 N2         -19.7470    26.1800     7.3440 n          1 ZM6      -0.440800
     20 O1         -24.3560    24.0080     7.7550 o          1 ZM6      -0.594100
     21 O2         -17.4490    26.2370     7.2720 o          1 ZM6      -0.643100
     22 Cl1        -22.8010    19.1150    12.1870 cl         1 ZM6      -0.171000
     23 Cl2        -20.2760    20.0050    10.3730 cl         1 ZM6      -0.170000
     24 H12        -19.5000    27.8920     5.5620 hn         1 ZM6       0.300500
     25 H3         -21.0780    22.2270     8.7850 ha         1 ZM6       0.139000
     26 H5         -22.1260    24.9860     5.9990 h1         1 ZM6       0.063700
     27 H4         -23.1780    26.1090     6.8630 h1         1 ZM6       0.063700
     28 H9         -19.3810    24.2750     8.1810 h1         1 ZM6       0.057950
     29 H8         -19.1070    25.6250     9.2930 h1         1 ZM6       0.057950
     30 H13        -16.8430    28.7460     5.9750 h1         1 ZM6       0.055200
     31 H14        -16.7800    27.4080     4.8000 h1         1 ZM6       0.055200
     32 H16        -16.9480    30.5720     2.6490 hc         1 ZM6       0.073700
     33 H11        -21.1250    24.2830     9.9160 h1         1 ZM6       0.063700
     34 H10        -21.5090    25.9670     9.5930 h1         1 ZM6       0.063700
     35 H15        -18.3780    28.6220     3.3030 hc         1 ZM6       0.086700
     36 H18        -18.2820    30.8810     5.4520 hc         1 ZM6       0.073700
     37 H19        -19.1450    30.9510     3.8380 hc         1 ZM6       0.073700
     38 H1         -24.9810    20.8680    11.5670 ha         1 ZM6       0.138000
     39 H2         -25.1940    22.7930    10.0150 ha         1 ZM6       0.135000
     40 H6         -21.0200    27.0490     5.8430 h1         1 ZM6       0.057950
     41 H7         -21.3760    27.5120     7.5100 h1         1 ZM6       0.057950
     42 H17        -16.0880    30.5040     4.2650 hc         1 ZM6       0.073700
@<TRIPOS>BOND
     1     1     6 1   
     2     1     7 1   
     3     1    12 1   
     4     2     9 1   
     5     2    13 1   
     6     2    24 1   
     7     3     4 ar  
     8     3     6 1   
     9     3    17 ar  
    10     4     5 ar  
    11     4    25 1   
    12     5    11 ar  
    13     5    23 1   
    14     6    20 2   
    15     7    18 1   
    16     7    26 1   
    17     7    27 1   
    18     8    12 1   
    19     8    19 1   
    20     8    28 1   
    21     8    29 1   
    22     9    14 1   
    23     9    30 1   
    24     9    31 1   
    25    10    14 1   
    26    10    15 1   
    27    10    32 1   
    28    10    42 1   
    29    11    16 ar  
    30    11    22 1   
    31    12    33 1   
    32    12    34 1   
    33    13    19 1   
    34    13    21 2   
    35    14    15 1   
    36    14    35 1   
    37    15    36 1   
    38    15    37 1   
    39    16    17 ar  
    40    16    38 1   
    41    17    39 1   
    42    18    19 1   
    43    18    40 1   
    44    18    41 1   
@<TRIPOS>SUBSTRUCTURE
     1 ZM6         1 TEMP              0 ****  ****    0 ROOT
