@<TRIPOS>MOLECULE
ZM8
   31    32     1     0     0
SMALL
No Charge or Current Charge


@<TRIPOS>ATOM
      1 N1           4.8370   -12.0700    73.3060 n7         1 ZM8      -0.838400
      2 C4           6.0900   -11.3520    73.6560 c6         1 ZM8       0.187500
      3 C5           7.3660   -12.1070    73.1910 c6         1 ZM8      -0.104900
      4 C6           8.6060   -11.8620    74.0940 c6         1 ZM8       0.102500
      5 C7           4.5540   -13.3100    74.0040 cx         1 ZM8       0.126500
      6 C8           3.1450   -13.8320    73.8920 cx         1 ZM8      -0.157900
      7 N            8.6480   -10.5090    74.7200 n          1 ZM8      -0.417800
      8 C            9.8480    -8.4350    75.5460 c3         1 ZM8      -0.178100
      9 O           10.9350   -10.3200    74.5520 o          1 ZM8      -0.606100
     10 C1           9.8730    -9.8290    74.9130 c          1 ZM8       0.608100
     11 C2           7.3900   -10.0630    75.3940 c6         1 ZM8       0.102500
     12 C3           6.1750   -10.9890    75.1530 c6         1 ZM8      -0.104900
     13 C9           3.6270   -13.2390    75.1920 cx         1 ZM8      -0.157900
     14 H1           4.0470   -11.4310    73.4520 hn         1 ZM8       0.415000
     15 H3           6.0750   -10.3980    73.1050 h1         1 ZM8       0.056700
     16 H4           7.1970   -13.1890    73.1220 hc         1 ZM8       0.053450
     17 H5           7.6010   -11.7830    72.1680 hc         1 ZM8       0.053450
     18 H6           8.6010   -12.6050    74.9050 h1         1 ZM8       0.049200
     19 H7           9.5130   -12.0480    73.5020 h1         1 ZM8       0.049200
     20 H8           5.3500   -14.0590    74.0280 h1         1 ZM8       0.091700
     21 H9           2.4290   -13.2600    73.3070 hc         1 ZM8       0.071950
     22 H10          3.0110   -14.9100    73.8460 hc         1 ZM8       0.071950
     23 H11         10.8400    -7.9710    75.5780 hc         1 ZM8       0.058700
     24 H12          9.1280    -7.8060    75.0110 hc         1 ZM8       0.058700
     25 H13          9.4120    -8.5010    76.5490 hc         1 ZM8       0.058700
     26 H14          7.5630    -9.9760    76.4760 h1         1 ZM8       0.049200
     27 H15          7.1360    -9.0600    75.0210 h1         1 ZM8       0.049200
     28 H16          5.2580   -10.4830    75.4830 hc         1 ZM8       0.053450
     29 H17          6.2760   -11.8960    75.7640 hc         1 ZM8       0.053450
     30 H18          3.2340   -12.2680    75.4840 hc         1 ZM8       0.071950
     31 H19          3.8210   -13.9170    76.0200 hc         1 ZM8       0.071950
@<TRIPOS>BOND
     1     1     2 1   
     2     1     5 1   
     3     1    14 1   
     4     2     3 1   
     5     2    12 1   
     6     2    15 1   
     7     3     4 1   
     8     3    16 1   
     9     3    17 1   
    10     4     7 1   
    11     4    18 1   
    12     4    19 1   
    13     5     6 1   
    14     5    13 1   
    15     5    20 1   
    16     6    13 1   
    17     6    21 1   
    18     6    22 1   
    19     7    10 1   
    20     7    11 1   
    21     8    10 1   
    22     8    23 1   
    23     8    24 1   
    24     8    25 1   
    25     9    10 2   
    26    11    12 1   
    27    11    26 1   
    28    11    27 1   
    29    12    28 1   
    30    12    29 1   
    31    13    30 1   
    32    13    31 1   
@<TRIPOS>SUBSTRUCTURE
     1 ZM8         1 TEMP              0 ****  ****    0 ROOT
