@<TRIPOS>MOLECULE
ZM8
   31    32     1     0     0
SMALL
abcg2


@<TRIPOS>ATOM
      1 N1           5.0220   -11.9700    73.2340 n7         1 ZM8      -0.838400
      2 C4           6.2340   -11.3860    73.7900 c6         1 ZM8       0.187500
      3 C5           7.4760   -12.2030    73.4000 c6         1 ZM8      -0.104900
      4 C6           8.6180   -11.9800    74.3920 c6         1 ZM8       0.102500
      5 C7           4.5610   -13.1930    73.8210 cx         1 ZM8       0.126500
      6 C8           3.1040   -13.5120    73.7870 cx         1 ZM8      -0.157900
      7 N            8.6180   -10.6140    74.8840 n          1 ZM8      -0.417800
      8 C            9.5410    -8.3870    75.2260 c3         1 ZM8      -0.178100
      9 O           10.6230   -10.1040    73.9720 o          1 ZM8      -0.606100
     10 C1           9.6470    -9.7760    74.6370 c          1 ZM8       0.608100
     11 C2           7.4370   -10.2350    75.6540 c6         1 ZM8       0.102500
     12 C3           6.2510   -11.1320    75.3000 c6         1 ZM8      -0.104900
     13 C9           3.7820   -13.2570    75.1060 cx         1 ZM8      -0.157900
     14 H1           4.2810   -11.2800    73.2600 hn         1 ZM8       0.415000
     15 H3           6.3220   -10.4060    73.3080 h1         1 ZM8       0.056700
     16 H4           7.2470   -13.2710    73.3860 hc         1 ZM8       0.053450
     17 H5           7.7880   -11.9340    72.3890 hc         1 ZM8       0.053450
     18 H6           8.5100   -12.6540    75.2460 h1         1 ZM8       0.049200
     19 H7           9.5790   -12.2000    73.9380 h1         1 ZM8       0.049200
     20 H8           5.2230   -14.0330    73.6360 h1         1 ZM8       0.091700
     21 H9           2.4300   -12.7480    73.4170 hc         1 ZM8       0.071950
     22 H10          2.7990   -14.5220    73.5430 hc         1 ZM8       0.071950
     23 H11         10.4810    -7.8620    75.0750 hc         1 ZM8       0.058700
     24 H12          8.7490    -7.8130    74.7420 hc         1 ZM8       0.058700
     25 H13          9.3190    -8.4050    76.2930 hc         1 ZM8       0.058700
     26 H14          7.6420   -10.2810    76.7290 h1         1 ZM8       0.049200
     27 H15          7.1690    -9.2050    75.4190 h1         1 ZM8       0.049200
     28 H16          5.3370   -10.6260    75.6170 hc         1 ZM8       0.053450
     29 H17          6.2930   -12.0730    75.8540 hc         1 ZM8       0.053450
     30 H18          3.5560   -12.3240    75.6060 hc         1 ZM8       0.071950
     31 H19          3.9450   -14.0940    75.7750 hc         1 ZM8       0.071950
@<TRIPOS>BOND
     1     1     2 1   
     2     1     5 1   
     3     1    14 1   
     4     2     3 1   
     5     2    12 1   
     6     2    15 1   
     7     3     4 1   
     8     3    16 1   
     9     3    17 1   
    10     4     7 1   
    11     4    18 1   
    12     4    19 1   
    13     5     6 1   
    14     5    13 1   
    15     5    20 1   
    16     6    13 1   
    17     6    21 1   
    18     6    22 1   
    19     7    10 1   
    20     7    11 1   
    21     8    10 1   
    22     8    23 1   
    23     8    24 1   
    24     8    25 1   
    25     9    10 2   
    26    11    12 1   
    27    11    26 1   
    28    11    27 1   
    29    12    28 1   
    30    12    29 1   
    31    13    30 1   
    32    13    31 1   
@<TRIPOS>SUBSTRUCTURE
     1 ZM8         1 TEMP              0 ****  ****    0 ROOT
