@<TRIPOS>MOLECULE
ZMA
   40    43     1     0     0
SMALL
No Charge or Current Charge


@<TRIPOS>ATOM
      1 C1          -5.6270     0.6000     1.2860 ca         1 ZMA      -0.064000
      2 C2          -6.9000     0.0020     1.3060 ca         1 ZMA      -0.174000
      3 C3          -7.5450    -0.3200     0.1040 ca         1 ZMA       0.143100
      4 O4          -8.7780    -0.9000     0.1350 oh         1 ZMA      -0.532100
      5 C5          -6.9200    -0.0470    -1.1240 ca         1 ZMA      -0.174000
      6 C6          -5.6470     0.5510    -1.1470 ca         1 ZMA      -0.064000
      7 C7          -4.9950     0.8790     0.0590 ca         1 ZMA      -0.123300
      8 C8          -3.6130     1.5200     0.0350 c3         1 ZMA      -0.044100
      9 C9          -2.4870     0.4680     0.0570 c3         1 ZMA       0.240800
     10 N10         -1.1590     1.1130     0.0330 nu         1 ZMA      -0.912100
     11 C11          0.0640     0.5020     0.0510 cc         1 ZMA       0.455900
     12 N12          1.1150     1.3180     0.0300 nd         1 ZMA      -0.284000
     13 N13          0.0110    -0.8820     0.0870 nc         1 ZMA      -0.365000
     14 C14          1.1780    -1.5040     0.1140 cd         1 ZMA       0.623400
     15 N15          1.2450    -2.8500     0.1380 nv         1 ZMA      -1.066900
     16 N16          2.3570    -0.7670     0.0930 na         1 ZMA      -0.204600
     17 N17          3.6450    -1.2340     0.0710 nd         1 ZMA      -0.600100
     18 C18          2.2650     0.5760     0.0500 cd         1 ZMA       0.244500
     19 N19          3.4750     1.0770     0.0140 nc         1 ZMA      -0.409300
     20 C20          4.2760    -0.0520     0.0300 cc         1 ZMA       0.526300
     21 C21          5.7160     0.0980    -0.0020 cc         1 ZMA       0.106700
     22 C22          6.4150     1.2770    -0.0460 cd         1 ZMA      -0.122000
     23 C23          7.7820     0.9280    -0.0640 cd         1 ZMA      -0.198000
     24 C24          7.8580    -0.4410    -0.0290 cc         1 ZMA       0.131900
     25 O25          6.5870    -0.9730     0.0090 os         1 ZMA      -0.219000
     26 H1          -5.1330     0.8450     2.2250 ha         1 ZMA       0.114000
     27 H2          -7.3840    -0.2110     2.2560 ha         1 ZMA       0.123000
     28 HO4         -9.0720    -1.0520    -0.7890 ho         1 ZMA       0.465000
     29 H5          -7.4120    -0.2940    -2.0610 ha         1 ZMA       0.123000
     30 H6          -5.1680     0.7580    -2.1010 ha         1 ZMA       0.114000
     31 H8          -3.5040     2.1440    -0.8610 hc         1 ZMA       0.053700
     32 H8A         -3.4960     2.1910     0.8950 hc         1 ZMA       0.053700
     33 H9          -2.5920    -0.1470     0.9620 h1         1 ZMA       0.057200
     34 H9A         -2.6000    -0.1950    -0.8120 h1         1 ZMA       0.057200
     35 HN10        -1.1170     2.1320     0.0080 hn         1 ZMA       0.516000
     36 HN15         0.4490    -3.3490    -0.2450 hn         1 ZMA       0.525500
     37 HN1A         2.1600    -3.2290    -0.0840 hn         1 ZMA       0.525500
     38 H22          5.9950     2.2780    -0.0640 ha         1 ZMA       0.159000
     39 H23          8.6250     1.6110    -0.0980 ha         1 ZMA       0.143000
     40 H24          8.6970    -1.1240    -0.0280 h4         1 ZMA       0.052100
@<TRIPOS>BOND
     1     1     2 ar  
     2     1     7 ar  
     3     1    26 1   
     4     2     3 ar  
     5     2    27 1   
     6     3     4 1   
     7     3     5 ar  
     8     4    28 1   
     9     5     6 ar  
    10     5    29 1   
    11     6     7 ar  
    12     6    30 1   
    13     7     8 1   
    14     8     9 1   
    15     8    31 1   
    16     8    32 1   
    17     9    10 1   
    18     9    33 1   
    19     9    34 1   
    20    10    11 1   
    21    10    35 1   
    22    11    12 2   
    23    11    13 1   
    24    12    18 1   
    25    13    14 2   
    26    14    15 1   
    27    14    16 1   
    28    15    36 1   
    29    15    37 1   
    30    16    17 1   
    31    16    18 1   
    32    17    20 2   
    33    18    19 2   
    34    19    20 1   
    35    20    21 1   
    36    21    22 2   
    37    21    25 1   
    38    22    23 1   
    39    22    38 1   
    40    23    24 2   
    41    23    39 1   
    42    24    25 1   
    43    24    40 1   
@<TRIPOS>SUBSTRUCTURE
     1 ZMA         1 TEMP              0 ****  ****    0 ROOT
