@<TRIPOS>MOLECULE
ZMA
   40    43     1     0     0
SMALL
abcg2


@<TRIPOS>ATOM
      1 C1          -5.5520     0.5460     1.2610 ca         1 ZMA      -0.064000
      2 C2          -6.7640    -0.1220     1.3140 ca         1 ZMA      -0.174000
      3 C3          -7.4110    -0.4800     0.1330 ca         1 ZMA       0.143100
      4 O4          -8.5920    -1.1260     0.2310 oh         1 ZMA      -0.532100
      5 C5          -6.8270    -0.1590    -1.0890 ca         1 ZMA      -0.174000
      6 C6          -5.6110     0.5100    -1.1210 ca         1 ZMA      -0.064000
      7 C7          -4.9520     0.8770     0.0480 ca         1 ZMA      -0.123300
      8 C8          -3.6170     1.5650     0.0040 c3         1 ZMA      -0.044100
      9 C9          -2.4760     0.5520     0.0040 c3         1 ZMA       0.240800
     10 N10         -1.2040     1.2410    -0.0200 nu         1 ZMA      -0.912100
     11 C11         -0.0130     0.6400    -0.0130 cc         1 ZMA       0.455900
     12 N12          1.0650     1.4290    -0.0050 nd         1 ZMA      -0.284000
     13 N13         -0.0220    -0.7090    -0.0170 nc         1 ZMA      -0.365000
     14 C14          1.1310    -1.3320    -0.0140 cd         1 ZMA       0.623400
     15 N15          1.2350    -2.6490    -0.0140 nv         1 ZMA      -1.066900
     16 N16          2.2690    -0.5930    -0.0060 na         1 ZMA      -0.204600
     17 N17          3.5470    -1.0300    -0.0030 nd         1 ZMA      -0.600100
     18 C18          2.2160     0.7790    -0.0030 cd         1 ZMA       0.244500
     19 N19          3.4540     1.2370     0.0030 nc         1 ZMA      -0.409300
     20 C20          4.2030     0.1100     0.0030 cc         1 ZMA       0.526300
     21 C21          5.6440     0.1730     0.0090 cc         1 ZMA       0.106700
     22 C22          6.5010     1.2280     0.0240 cd         1 ZMA      -0.122000
     23 C23          7.8100     0.6690     0.0260 cd         1 ZMA      -0.198000
     24 C24          7.6410    -0.6760     0.0140 cc         1 ZMA       0.131900
     25 O25          6.3320    -0.9870     0.0030 os         1 ZMA      -0.219000
     26 H1          -5.0660     0.8190     2.1910 ha         1 ZMA       0.114000
     27 H2          -7.2150    -0.3620     2.2690 ha         1 ZMA       0.123000
     28 HO4         -8.9470    -1.3090    -0.6460 ho         1 ZMA       0.465000
     29 H5          -7.3200    -0.4230    -2.0180 ha         1 ZMA       0.123000
     30 H6          -5.1740     0.7520    -2.0820 ha         1 ZMA       0.114000
     31 H8          -3.5460     2.1910    -0.8890 hc         1 ZMA       0.053700
     32 H8A         -3.5090     2.2290     0.8670 hc         1 ZMA       0.053700
     33 H9          -2.5480    -0.0820     0.8920 h1         1 ZMA       0.057200
     34 H9A         -2.5680    -0.1060    -0.8640 h1         1 ZMA       0.057200
     35 HN10        -1.1960     2.2480    -0.0040 hn         1 ZMA       0.516000
     36 HN15         0.4020    -3.2130    -0.0400 hn         1 ZMA       0.525500
     37 HN1A         2.1310    -3.1060    -0.0330 hn         1 ZMA       0.525500
     38 H22          6.2310     2.2710     0.0310 ha         1 ZMA       0.159000
     39 H23          8.7490     1.1970     0.0370 ha         1 ZMA       0.143000
     40 H24          8.3340    -1.5020     0.0110 h4         1 ZMA       0.052100
@<TRIPOS>BOND
     1     1     2 ar  
     2     1     7 ar  
     3     1    26 1   
     4     2     3 ar  
     5     2    27 1   
     6     3     4 1   
     7     3     5 ar  
     8     4    28 1   
     9     5     6 ar  
    10     5    29 1   
    11     6     7 ar  
    12     6    30 1   
    13     7     8 1   
    14     8     9 1   
    15     8    31 1   
    16     8    32 1   
    17     9    10 1   
    18     9    33 1   
    19     9    34 1   
    20    10    11 1   
    21    10    35 1   
    22    11    12 2   
    23    11    13 1   
    24    12    18 1   
    25    13    14 2   
    26    14    15 1   
    27    14    16 1   
    28    15    36 1   
    29    15    37 1   
    30    16    17 1   
    31    16    18 1   
    32    17    20 2   
    33    18    19 2   
    34    19    20 1   
    35    20    21 1   
    36    21    22 2   
    37    21    25 1   
    38    22    23 1   
    39    22    38 1   
    40    23    24 2   
    41    23    39 1   
    42    24    25 1   
    43    24    40 1   
@<TRIPOS>SUBSTRUCTURE
     1 ZMA         1 TEMP              0 ****  ****    0 ROOT
