@<TRIPOS>MOLECULE
ZMB
   45    45     1     0     0
SMALL
No Charge or Current Charge


@<TRIPOS>ATOM
      1 C1          30.5070    63.4610    -8.8090 c3         1 ZMB       0.152900
      2 C10         32.0420    62.8600   -17.1520 c6         1 ZMB       0.163300
      3 C11         31.5870    63.4500   -15.7870 c6         1 ZMB       0.043700
      4 C12         29.3220    63.3990   -14.6240 c          1 ZMB       0.606100
      5 C13         28.2380    62.4600   -14.1160 c3         1 ZMB      -0.181100
      6 C2          31.5340    62.7860   -10.8830 c          1 ZMB       0.605100
      7 C3          32.8870    62.5010   -11.5560 c3         1 ZMB      -0.141700
      8 C4          32.9030    61.1280   -12.2770 c3         1 ZMB      -0.080100
      9 C5          33.3360    63.7120   -12.4140 c3         1 ZMB       0.173600
     10 C6          32.7710    63.3220   -14.7770 c6         1 ZMB       0.383300
     11 C7          34.4430    63.4300   -16.5300 c6         1 ZMB       0.151300
     12 C8          35.7660    64.1750   -16.9080 c3         1 ZMB       0.168600
     13 C9          33.3560    63.5390   -17.6430 c6         1 ZMB       0.147300
     14 N1          30.3510    62.7790   -15.2990 ns         1 ZMB      -0.515900
     15 O1          31.6900    63.1570    -9.5720 os         1 ZMB      -0.446100
     16 O2          30.4510    62.6990   -11.4460 o          1 ZMB      -0.495000
     17 O3          32.4290    63.9200   -13.5140 os         1 ZMB      -0.438000
     18 O4          33.9290    64.0010   -15.2980 os         1 ZMB      -0.472000
     19 O5          36.7660    64.1280   -15.8690 oh         1 ZMB      -0.716000
     20 O6          33.7850    62.9380   -18.8800 oh         1 ZMB      -0.712000
     21 O7          31.0100    63.0100   -18.1430 oh         1 ZMB      -0.645000
     22 O8          29.2700    64.6100   -14.4700 o          1 ZMB      -0.591100
     23 H1          30.7760    63.7410    -7.7830 h1         1 ZMB       0.051700
     24 H2          29.9570    64.2990    -9.2570 h1         1 ZMB       0.051700
     25 H3          29.8380    62.5920    -8.7600 h1         1 ZMB       0.051700
     26 H4          32.2480    61.7890   -17.0010 h1         1 ZMB       0.040700
     27 H5          31.3830    64.5230   -15.9210 h1         1 ZMB       0.122700
     28 H6          27.4420    62.9870   -13.5790 hc         1 ZMB       0.067033
     29 H7          27.8420    61.8850   -14.9610 hc         1 ZMB       0.067033
     30 H8          28.6990    61.6810   -13.4990 hc         1 ZMB       0.067033
     31 H9          33.6290    62.4530   -10.7510 hc         1 ZMB       0.079700
     32 H10         32.7440    60.3180   -11.5550 hc         1 ZMB       0.043367
     33 H11         32.1080    61.0640   -13.0290 hc         1 ZMB       0.043367
     34 H12         33.8680    60.9580   -12.7700 hc         1 ZMB       0.043367
     35 H13         34.3650    63.5590   -12.7680 h1         1 ZMB       0.061700
     36 H14         33.3460    64.6040   -11.7730 h1         1 ZMB       0.061700
     37 H15         33.0080    62.2600   -14.6360 h2         1 ZMB       0.020700
     38 H16         34.6840    62.3710   -16.3560 h1         1 ZMB       0.060700
     39 H17         36.1640    63.7240   -17.8270 h1         1 ZMB       0.034200
     40 H18         35.5150    65.2190   -17.1420 h1         1 ZMB       0.034200
     41 H19         33.1460    64.6080   -17.8050 h1         1 ZMB       0.063700
     42 H20         30.2980    61.7680   -15.3520 hn         1 ZMB       0.304500
     43 H21         37.5230    64.6810   -16.1740 ho         1 ZMB       0.505000
     44 H22         32.9540    62.8030   -19.3980 ho         1 ZMB       0.509000
     45 H23         30.1600    62.8110   -17.6900 ho         1 ZMB       0.453000
@<TRIPOS>BOND
     1     1    15 1   
     2     1    23 1   
     3     1    24 1   
     4     1    25 1   
     5     2     3 1   
     6     2    13 1   
     7     2    21 1   
     8     2    26 1   
     9     3    10 1   
    10     3    14 1   
    11     3    27 1   
    12     4     5 1   
    13     4    14 1   
    14     4    22 2   
    15     5    28 1   
    16     5    29 1   
    17     5    30 1   
    18     6     7 1   
    19     6    15 1   
    20     6    16 2   
    21     7     8 1   
    22     7     9 1   
    23     7    31 1   
    24     8    32 1   
    25     8    33 1   
    26     8    34 1   
    27     9    17 1   
    28     9    35 1   
    29     9    36 1   
    30    10    17 1   
    31    10    18 1   
    32    10    37 1   
    33    11    12 1   
    34    11    13 1   
    35    11    18 1   
    36    11    38 1   
    37    12    19 1   
    38    12    39 1   
    39    12    40 1   
    40    13    20 1   
    41    13    41 1   
    42    14    42 1   
    43    19    43 1   
    44    20    44 1   
    45    21    45 1   
@<TRIPOS>SUBSTRUCTURE
     1 ZMB         1 TEMP              0 ****  ****    0 ROOT
