@<TRIPOS>MOLECULE
ZMB
   45    45     1     0     0
SMALL
abcg2


@<TRIPOS>ATOM
      1 C1          30.7210    64.5580    -9.7810 c3         1 ZMB       0.152900
      2 C10         31.9640    63.1840   -17.0280 c6         1 ZMB       0.163300
      3 C11         31.6560    63.3800   -15.5410 c6         1 ZMB       0.043700
      4 C12         29.4830    62.9670   -14.4320 c          1 ZMB       0.606100
      5 C13         28.5260    61.8920   -13.9820 c3         1 ZMB      -0.181100
      6 C2          31.4780    62.6290   -10.9240 c          1 ZMB       0.605100
      7 C3          32.6990    61.9140   -11.4760 c3         1 ZMB      -0.141700
      8 C4          32.3190    60.6050   -12.1610 c3         1 ZMB      -0.080100
      9 C5          33.4920    62.8530   -12.3900 c3         1 ZMB       0.173600
     10 C6          32.9030    63.1090   -14.7000 c6         1 ZMB       0.383300
     11 C7          34.3630    63.6830   -16.4820 c6         1 ZMB       0.151300
     12 C8          35.5670    64.5460   -16.7770 c3         1 ZMB       0.168600
     13 C9          33.2030    63.9570   -17.4530 c6         1 ZMB       0.147300
     14 N1          30.5500    62.5340   -15.1460 ns         1 ZMB      -0.515900
     15 O1          31.8070    63.7790   -10.3220 os         1 ZMB      -0.446100
     16 O2          30.3400    62.2250   -11.0020 o          1 ZMB      -0.495000
     17 O3          32.6220    63.4150   -13.3800 os         1 ZMB      -0.438000
     18 O4          33.9540    63.9550   -15.1420 os         1 ZMB      -0.472000
     19 O5          36.6710    64.0750   -16.0040 oh         1 ZMB      -0.716000
     20 O6          33.5500    63.5370   -18.7720 oh         1 ZMB      -0.712000
     21 O7          30.8730    63.6170   -17.8300 oh         1 ZMB      -0.645000
     22 O8          29.3020    64.1520   -14.1540 o          1 ZMB      -0.591100
     23 H1          31.1810    65.4480    -9.3640 h1         1 ZMB       0.051700
     24 H2          30.0200    64.8240   -10.5720 h1         1 ZMB       0.051700
     25 H3          30.2030    63.9950    -9.0050 h1         1 ZMB       0.051700
     26 H4          32.1600    62.1180   -17.2090 h1         1 ZMB       0.040700
     27 H5          31.3560    64.4120   -15.3660 h1         1 ZMB       0.122700
     28 H6          27.5040    62.2310   -14.1470 hc         1 ZMB       0.067033
     29 H7          28.6850    60.9420   -14.4920 hc         1 ZMB       0.067033
     30 H8          28.6700    61.7450   -12.9100 hc         1 ZMB       0.067033
     31 H9          33.3460    61.7030   -10.6170 hc         1 ZMB       0.079700
     32 H10         31.7790    59.9490   -11.4790 hc         1 ZMB       0.043367
     33 H11         31.6830    60.7860   -13.0270 hc         1 ZMB       0.043367
     34 H12         33.2210    60.0900   -12.4950 hc         1 ZMB       0.043367
     35 H13         34.3040    62.3010   -12.8660 h1         1 ZMB       0.061700
     36 H14         33.9190    63.6750   -11.8180 h1         1 ZMB       0.061700
     37 H15         33.2210    62.0610   -14.8020 h2         1 ZMB       0.020700
     38 H16         34.6480    62.6260   -16.5720 h1         1 ZMB       0.060700
     39 H17         35.7940    64.4870   -17.8450 h1         1 ZMB       0.034200
     40 H18         35.3290    65.5850   -16.5260 h1         1 ZMB       0.034200
     41 H19         32.9680    65.0260   -17.4420 h1         1 ZMB       0.063700
     42 H20         30.6500    61.5400   -15.2890 hn         1 ZMB       0.304500
     43 H21         37.4330    64.6350   -16.1960 ho         1 ZMB       0.505000
     44 H22         33.8610    64.2980   -19.2740 ho         1 ZMB       0.509000
     45 H23         30.0900    63.1200   -17.5600 ho         1 ZMB       0.453000
@<TRIPOS>BOND
     1     1    15 1   
     2     1    23 1   
     3     1    24 1   
     4     1    25 1   
     5     2     3 1   
     6     2    13 1   
     7     2    21 1   
     8     2    26 1   
     9     3    10 1   
    10     3    14 1   
    11     3    27 1   
    12     4     5 1   
    13     4    14 1   
    14     4    22 2   
    15     5    28 1   
    16     5    29 1   
    17     5    30 1   
    18     6     7 1   
    19     6    15 1   
    20     6    16 2   
    21     7     8 1   
    22     7     9 1   
    23     7    31 1   
    24     8    32 1   
    25     8    33 1   
    26     8    34 1   
    27     9    17 1   
    28     9    35 1   
    29     9    36 1   
    30    10    17 1   
    31    10    18 1   
    32    10    37 1   
    33    11    12 1   
    34    11    13 1   
    35    11    18 1   
    36    11    38 1   
    37    12    19 1   
    38    12    39 1   
    39    12    40 1   
    40    13    20 1   
    41    13    41 1   
    42    14    42 1   
    43    19    43 1   
    44    20    44 1   
    45    21    45 1   
@<TRIPOS>SUBSTRUCTURE
     1 ZMB         1 TEMP              0 ****  ****    0 ROOT
