@<TRIPOS>MOLECULE
ZMC
   32    34     1     0     0
SMALL
abcg2


@<TRIPOS>ATOM
      1 N1           3.4830    -6.8460    75.2000 nb         1 ZMC      -0.664000
      2 C4           9.7900    -9.4610    74.7760 ca         1 ZMC      -0.073000
      3 C5           9.7510    -9.7280    76.1560 ca         1 ZMC      -0.089300
      4 C6           9.3610    -8.6270    77.1100 c3         1 ZMC       0.213100
      5 C7           6.9490    -8.7350    76.9200 c3         1 ZMC       0.199100
      6 C8           5.7410    -8.0670    76.3260 ca         1 ZMC      -0.050300
      7 C10          3.4730    -7.3030    76.4450 ca         1 ZMC       0.329400
      8 C13         10.8900   -11.7120    72.2390 c5         1 ZMC       0.373600
      9 N            8.1460    -7.9520    76.6930 n7         1 ZMC      -0.866400
     10 C           10.0940   -10.9860    76.6280 ca         1 ZMC      -0.111000
     11 O           10.2880   -10.4760    72.5960 os         1 ZMC      -0.344100
     12 C1          10.4960   -12.0200    75.7710 ca         1 ZMC      -0.099000
     13 C11          4.6110    -6.9930    74.5100 ca         1 ZMC       0.329400
     14 C12          5.7540    -7.5840    75.0210 ca         1 ZMC      -0.152000
     15 C2          10.5310   -11.7320    74.4310 ca         1 ZMC       0.055100
     16 C3          10.1850   -10.4780    73.9480 ca         1 ZMC       0.047100
     17 C9           4.5640    -7.9140    77.0480 ca         1 ZMC      -0.152000
     18 O1          10.8530   -12.5420    73.3920 os         1 ZMC      -0.344100
     19 H2          10.1540    -7.8750    77.1370 h1         1 ZMC       0.039200
     20 H3           9.2940    -9.0430    78.1260 h1         1 ZMC       0.039200
     21 H4           7.0790    -9.7070    76.4330 h1         1 ZMC       0.045200
     22 H5           6.7670    -8.9500    77.9830 h1         1 ZMC       0.045200
     23 H6           2.5500    -7.1750    77.0010 h4         1 ZMC       0.017600
     24 H7          10.3260   -12.1780    71.4300 h2         1 ZMC       0.064200
     25 H8           8.0690    -7.0730    77.1880 hn         1 ZMC       0.419000
     26 H10         10.0520   -11.1790    77.6930 ha         1 ZMC       0.115000
     27 H11         10.7570   -12.9970    76.1530 ha         1 ZMC       0.134000
     28 H12          4.6050    -6.6170    73.4920 h4         1 ZMC       0.017600
     29 H13          6.6410    -7.6650    74.4070 ha         1 ZMC       0.127500
     30 H14          4.4910    -8.2590    78.0720 ha         1 ZMC       0.127500
     31 H15         11.9290   -11.5450    71.9330 h2         1 ZMC       0.064200
     32 H1           9.5140    -8.4880    74.3890 ha         1 ZMC       0.145000
@<TRIPOS>BOND
     1     1     7 ar  
     2     1    13 ar  
     3     2     3 ar  
     4     2    16 ar  
     5     2    32 1   
     6     3     4 1   
     7     3    10 ar  
     8     4     9 1   
     9     4    19 1   
    10     4    20 1   
    11     5     6 1   
    12     5     9 1   
    13     5    21 1   
    14     5    22 1   
    15     6    14 ar  
    16     6    17 ar  
    17     7    17 ar  
    18     7    23 1   
    19     8    11 1   
    20     8    18 1   
    21     8    24 1   
    22     8    31 1   
    23     9    25 1   
    24    10    12 ar  
    25    10    26 1   
    26    11    16 1   
    27    12    15 ar  
    28    12    27 1   
    29    13    14 ar  
    30    13    28 1   
    31    14    29 1   
    32    15    16 ar  
    33    15    18 1   
    34    17    30 1   
@<TRIPOS>SUBSTRUCTURE
     1 ZMC         1 TEMP              0 ****  ****    0 ROOT
