@<TRIPOS>MOLECULE
ZMC
   32    34     1     0     0
SMALL
No Charge or Current Charge


@<TRIPOS>ATOM
      1 N1           3.3150    -6.7380    75.4540 nb         1 ZMC      -0.664000
      2 C4          10.1850    -9.3720    74.8220 ca         1 ZMC      -0.073000
      3 C5           9.7970    -9.6800    76.1470 ca         1 ZMC      -0.089300
      4 C6           9.3590    -8.5650    77.0910 c3         1 ZMC       0.213100
      5 C7           6.9150    -8.8740    76.6650 c3         1 ZMC       0.199100
      6 C8           5.6560    -8.1280    76.2440 ca         1 ZMC      -0.050300
      7 C10          3.5880    -6.9650    76.7600 ca         1 ZMC       0.329400
      8 C13         11.2150   -11.6960    72.2910 c5         1 ZMC       0.373600
      9 N            8.0780    -7.9640    76.6670 n7         1 ZMC      -0.866400
     10 C            9.8150   -11.0290    76.5880 ca         1 ZMC      -0.111000
     11 O           10.9820   -10.2990    72.6920 os         1 ZMC      -0.344100
     12 C1          10.2180   -12.0640    75.7160 ca         1 ZMC      -0.099000
     13 C11          4.2010    -7.1960    74.5390 ca         1 ZMC       0.329400
     14 C12          5.3730    -7.8890    74.8870 ca         1 ZMC      -0.152000
     15 C2          10.5920   -11.7180    74.4130 ca         1 ZMC       0.055100
     16 C3          10.5770   -10.4220    73.9820 ca         1 ZMC       0.047100
     17 C9           4.7360    -7.6500    77.1960 ca         1 ZMC      -0.152000
     18 O1          11.0100   -12.5800    73.4510 os         1 ZMC      -0.344100
     19 H2          10.1440    -7.7970    77.1090 h1         1 ZMC       0.039200
     20 H3           9.2750    -8.9600    78.1130 h1         1 ZMC       0.039200
     21 H4           7.0770    -9.7100    75.9700 h1         1 ZMC       0.045200
     22 H5           6.7620    -9.3060    77.6640 h1         1 ZMC       0.045200
     23 H6           2.8620    -6.5880    77.4800 h4         1 ZMC       0.017600
     24 H7          10.5020   -11.9670    71.5030 h2         1 ZMC       0.064200
     25 H8           7.8650    -7.1900    77.3080 hn         1 ZMC       0.419000
     26 H10          9.5160   -11.2740    77.6050 ha         1 ZMC       0.115000
     27 H11         10.2370   -13.1010    76.0450 ha         1 ZMC       0.134000
     28 H12          3.9640    -7.0000    73.4930 h4         1 ZMC       0.017600
     29 H13          6.0500    -8.2310    74.1100 ha         1 ZMC       0.127500
     30 H14          4.9020    -7.8020    78.2580 ha         1 ZMC       0.127500
     31 H15         12.2410   -11.8070    71.9210 h2         1 ZMC       0.064200
     32 H1          10.1770    -8.3470    74.4600 ha         1 ZMC       0.145000
@<TRIPOS>BOND
     1     1     7 ar  
     2     1    13 ar  
     3     2     3 ar  
     4     2    16 ar  
     5     2    32 1   
     6     3     4 1   
     7     3    10 ar  
     8     4     9 1   
     9     4    19 1   
    10     4    20 1   
    11     5     6 1   
    12     5     9 1   
    13     5    21 1   
    14     5    22 1   
    15     6    14 ar  
    16     6    17 ar  
    17     7    17 ar  
    18     7    23 1   
    19     8    11 1   
    20     8    18 1   
    21     8    24 1   
    22     8    31 1   
    23     9    25 1   
    24    10    12 ar  
    25    10    26 1   
    26    11    16 1   
    27    12    15 ar  
    28    12    27 1   
    29    13    14 ar  
    30    13    28 1   
    31    14    29 1   
    32    15    16 ar  
    33    15    18 1   
    34    17    30 1   
@<TRIPOS>SUBSTRUCTURE
     1 ZMC         1 TEMP              0 ****  ****    0 ROOT
