@<TRIPOS>MOLECULE
ZME
   24    26     1     0     0
SMALL
No Charge or Current Charge


@<TRIPOS>ATOM
      1 CAA          4.6970    -0.4820    -0.3520 c3         1 ZME      -0.014800
      2 CAK          3.2950    -0.0020    -0.0970 cc         1 ZME      -0.142300
      3 CAF          2.1160    -0.5410    -0.5490 cd         1 ZME      -0.156000
      4 CAC          2.9860     1.0890     0.7540 cc         1 ZME      -0.169000
      5 CAE          1.6290     1.2440     0.8440 cd         1 ZME      -0.161000
      6 N6           1.1250     0.3140    -0.0630 na         1 ZME      -0.002500
      7 C6          -0.1100    -0.2630     0.2520 ca         1 ZME       0.304500
      8 N1          -0.2510    -1.3880     1.0020 nb         1 ZME      -0.251000
      9 C2          -1.5050    -1.8370     1.2350 ca         1 ZME       0.170900
     10 N3          -2.6550    -1.2790     0.7980 nb         1 ZME      -0.190000
     11 C4          -2.5120    -0.1670     0.0590 ca         1 ZME       0.110500
     12 C5          -1.2830     0.3710    -0.2360 ca         1 ZME      -0.052600
     13 N7          -1.3960     1.5200    -1.0140 nc         1 ZME      -0.548100
     14 C8          -2.7270     1.6420    -1.1680 cd         1 ZME       0.417700
     15 N9          -3.4530     0.6310    -0.5280 na         1 ZME      -0.410300
     16 H1           5.1420    -0.8880     0.5640 hc         1 ZME       0.037700
     17 H2           4.7120    -1.2710    -1.1130 hc         1 ZME       0.037700
     18 H3           5.3340     0.3380    -0.7040 hc         1 ZME       0.037700
     19 H4           1.9120    -1.4160    -1.1560 h4         1 ZME       0.166000
     20 H5           3.7280     1.6700     1.2960 ha         1 ZME       0.135000
     21 H6           1.0110     1.9110     1.4380 h4         1 ZME       0.176000
     22 H7          -1.5980    -2.7400     1.8360 h5         1 ZME       0.056100
     23 H9          -3.2290     2.4270    -1.7220 h5         1 ZME       0.071800
     24 H10         -4.4580     0.5260    -0.5110 hn         1 ZME       0.375000
@<TRIPOS>BOND
     1     1     2 1   
     2     1    16 1   
     3     1    17 1   
     4     1    18 1   
     5     2     3 2   
     6     2     4 1   
     7     3     6 1   
     8     3    19 1   
     9     4     5 2   
    10     4    20 1   
    11     5     6 1   
    12     5    21 1   
    13     6     7 1   
    14     7     8 ar  
    15     7    12 ar  
    16     8     9 ar  
    17     9    10 ar  
    18     9    22 1   
    19    10    11 ar  
    20    11    12 ar  
    21    11    15 1   
    22    12    13 1   
    23    13    14 2   
    24    14    15 1   
    25    14    23 1   
    26    15    24 1   
@<TRIPOS>SUBSTRUCTURE
     1 ZME         1 TEMP              0 ****  ****    0 ROOT
