@<TRIPOS>MOLECULE
ZME
   24    26     1     0     0
SMALL
bcc


@<TRIPOS>ATOM
      1 CAA          4.7860    -0.4880     0.1450 c3         1 ZME      -0.014800
      2 CAK          3.3720    -0.0190     0.0760 cc         1 ZME      -0.142300
      3 CAF          2.2530    -0.7920     0.1410 cd         1 ZME      -0.123300
      4 CAC          2.9300     1.3370    -0.0700 cc         1 ZME      -0.187000
      5 CAE          1.5720     1.3370    -0.0880 cd         1 ZME      -0.128300
      6 N6           1.1450     0.0310     0.0420 na         1 ZME      -0.103900
      7 C6          -0.1630    -0.4070     0.0740 ca         1 ZME       0.632800
      8 N1          -0.3620    -1.7100     0.2110 nb         1 ZME      -0.777000
      9 C2          -1.6040    -2.1860     0.2510 ca         1 ZME       0.696900
     10 N3          -2.7300    -1.5010     0.1690 nb         1 ZME      -0.716000
     11 C4          -2.5170    -0.2010     0.0300 ca         1 ZME       0.438800
     12 C5          -1.2730     0.4390    -0.0290 ca         1 ZME      -0.183200
     13 N7          -1.4410     1.7920    -0.1750 nc         1 ZME      -0.548100
     14 C8          -2.7320     1.9580    -0.2030 cd         1 ZME       0.417700
     15 N9          -3.4290     0.7980    -0.0850 na         1 ZME      -0.360000
     16 H1           5.3040    -0.0660     1.0080 hc         1 ZME       0.037700
     17 H2           4.8420    -1.5730     0.2220 hc         1 ZME       0.037700
     18 H3           5.3480    -0.1880    -0.7410 hc         1 ZME       0.037700
     19 H4           2.1440    -1.8570     0.2480 h4         1 ZME       0.184000
     20 H5           3.5600     2.2090    -0.1540 ha         1 ZME       0.153000
     21 H6           0.8690     2.1470    -0.1820 h4         1 ZME       0.194000
     22 H7          -1.6950    -3.2600     0.3650 h5         1 ZME       0.056100
     23 H9          -3.2340     2.9070    -0.3090 h5         1 ZME       0.071800
     24 H10         -4.4330     0.7030    -0.0800 hn         1 ZME       0.324700
@<TRIPOS>BOND
     1     1     2 1   
     2     1    16 1   
     3     1    17 1   
     4     1    18 1   
     5     2     3 2   
     6     2     4 1   
     7     3     6 1   
     8     3    19 1   
     9     4     5 2   
    10     4    20 1   
    11     5     6 1   
    12     5    21 1   
    13     6     7 1   
    14     7     8 ar  
    15     7    12 ar  
    16     8     9 ar  
    17     9    10 ar  
    18     9    22 1   
    19    10    11 ar  
    20    11    12 ar  
    21    11    15 1   
    22    12    13 1   
    23    13    14 2   
    24    14    15 1   
    25    14    23 1   
    26    15    24 1   
@<TRIPOS>SUBSTRUCTURE
     1 ZME         1 TEMP              0 ****  ****    0 ROOT
