@<TRIPOS>MOLECULE
ZMG
   30    31     1     0     0
SMALL
bcc


@<TRIPOS>ATOM
      1 C1          -3.5790     1.9370     0.0220 ca         1 ZMG      -0.119000
      2 C2          -4.6620     1.1050     0.2620 ca         1 ZMG      -0.119000
      3 C3          -4.4760    -0.2700     0.2990 ca         1 ZMG      -0.143000
      4 C4          -3.2120    -0.7740     0.0980 ca         1 ZMG       0.085900
      5 C5          -2.1040     0.0380    -0.1450 ca         1 ZMG       0.109600
      6 C6          -2.3080     1.4150    -0.1830 ca         1 ZMG      -0.110000
      7 N7          -0.8780    -0.6070    -0.3530 nu         1 ZMG      -0.669600
      8 C8           0.3460    -0.0830    -0.4110 c2         1 ZMG       0.741100
      9 S9           1.6670    -1.2020    -0.7230 ss         1 ZMG      -0.293300
     10 C10          2.8380     0.1760    -0.6060 c5         1 ZMG      -0.102600
     11 C11          1.9690     1.4190    -0.3740 c          1 ZMG       0.713500
     12 N12          0.6280     1.1730    -0.2650 ne         1 ZMG      -0.732100
     13 F13         -3.0220    -2.1050     0.1320 f          1 ZMG      -0.150900
     14 O14          2.4640     2.5200    -0.2840 o          1 ZMG      -0.504100
     15 C15          3.8980    -0.0100     0.4870 c3         1 ZMG      -0.037700
     16 C16          3.2980    -0.1050     1.8840 c3         1 ZMG      -0.095600
     17 C17          4.7850    -1.2110     0.1820 c3         1 ZMG      -0.095600
     18 H1          -3.7150     3.0090    -0.0090 ha         1 ZMG       0.143000
     19 H2          -5.6490     1.5180     0.4220 ha         1 ZMG       0.141000
     20 H3          -5.2990    -0.9480     0.4840 ha         1 ZMG       0.153000
     21 H6          -1.4770     2.0770    -0.3650 ha         1 ZMG       0.181000
     22 HN7         -0.9350    -1.6110    -0.4530 hn         1 ZMG       0.468800
     23 H10          3.3330     0.2790    -1.5750 h1         1 ZMG       0.109700
     24 H15          4.5180     0.8900     0.4340 hc         1 ZMG       0.072700
     25 H116         4.0920    -0.2100     2.6240 hc         1 ZMG       0.041867
     26 H216         2.7240     0.7820     2.1530 hc         1 ZMG       0.041867
     27 H316         2.6440    -0.9740     1.9780 hc         1 ZMG       0.041867
     28 H117         5.2290    -1.1410    -0.8120 hc         1 ZMG       0.041867
     29 H217         5.5970    -1.2780     0.9060 hc         1 ZMG       0.041867
     30 H317         4.2240    -2.1470     0.2340 hc         1 ZMG       0.041867
@<TRIPOS>BOND
     1     1     2 ar  
     2     1     6 ar  
     3     1    18 1   
     4     2     3 ar  
     5     2    19 1   
     6     3     4 ar  
     7     3    20 1   
     8     4     5 ar  
     9     4    13 1   
    10     5     6 ar  
    11     5     7 1   
    12     6    21 1   
    13     7     8 1   
    14     7    22 1   
    15     8     9 1   
    16     8    12 2   
    17     9    10 1   
    18    10    11 1   
    19    10    15 1   
    20    10    23 1   
    21    11    12 1   
    22    11    14 2   
    23    15    16 1   
    24    15    17 1   
    25    15    24 1   
    26    16    25 1   
    27    16    26 1   
    28    16    27 1   
    29    17    28 1   
    30    17    29 1   
    31    17    30 1   
@<TRIPOS>SUBSTRUCTURE
     1 ZMG         1 TEMP              0 ****  ****    0 ROOT
