@<TRIPOS>MOLECULE
ZMG
   30    31     1     0     0
SMALL
No Charge or Current Charge


@<TRIPOS>ATOM
      1 C1          -3.7560     1.9370    -0.5770 ca         1 ZMG      -0.101000
      2 C2          -4.7700     1.2330     0.0950 ca         1 ZMG      -0.101000
      3 C3          -4.5300    -0.0740     0.5520 ca         1 ZMG      -0.125000
      4 C4          -3.2760    -0.6710     0.3410 ca         1 ZMG       0.121000
      5 C5          -2.2410     0.0320    -0.3230 ca         1 ZMG       0.248000
      6 C6          -2.5000     1.3370    -0.7870 ca         1 ZMG      -0.092000
      7 N7          -0.9950    -0.5750    -0.5440 nu         1 ZMG      -0.863200
      8 C8           0.2710    -0.1060    -0.3490 c2         1 ZMG       0.741100
      9 S9           1.6250    -1.2240    -0.4760 ss         1 ZMG      -0.341200
     10 C10          2.7460     0.2470    -0.3200 c5         1 ZMG      -0.054700
     11 C11          1.8560     1.4130     0.1940 c          1 ZMG       0.713500
     12 N12          0.5190     1.1070    -0.0310 ne         1 ZMG      -0.732100
     13 F13         -3.0670    -1.9350     0.7850 f          1 ZMG      -0.186000
     14 O14          2.2380     2.4350     0.7410 o          1 ZMG      -0.504100
     15 C15          3.9980    -0.0430     0.5640 c3         1 ZMG      -0.037700
     16 C16          3.6540    -0.4680     2.0140 c3         1 ZMG      -0.095600
     17 C17          4.9550    -1.0620    -0.0950 c3         1 ZMG      -0.095600
     18 H1          -3.9430     2.9470    -0.9370 ha         1 ZMG       0.125000
     19 H2          -5.7410     1.6980     0.2560 ha         1 ZMG       0.123000
     20 H3          -5.3130    -0.6250     1.0680 ha         1 ZMG       0.135000
     21 H6          -1.7270     1.8860    -1.3170 ha         1 ZMG       0.163000
     22 HN7         -1.0200    -1.5900    -0.4970 hn         1 ZMG       0.524000
     23 H10          3.0730     0.5440    -1.3240 h1         1 ZMG       0.109700
     24 H15          4.5630     0.8950     0.6420 hc         1 ZMG       0.072700
     25 H116         4.5690    -0.5690     2.6120 hc         1 ZMG       0.041867
     26 H216         3.0170     0.2780     2.5050 hc         1 ZMG       0.041867
     27 H316         3.1320    -1.4320     2.0330 hc         1 ZMG       0.041867
     28 H117         5.2360    -0.7350    -1.1040 hc         1 ZMG       0.041867
     29 H217         5.8750    -1.1670     0.4930 hc         1 ZMG       0.041867
     30 H317         4.4880    -2.0510    -0.1730 hc         1 ZMG       0.041867
@<TRIPOS>BOND
     1     1     2 ar  
     2     1     6 ar  
     3     1    18 1   
     4     2     3 ar  
     5     2    19 1   
     6     3     4 ar  
     7     3    20 1   
     8     4     5 ar  
     9     4    13 1   
    10     5     6 ar  
    11     5     7 1   
    12     6    21 1   
    13     7     8 1   
    14     7    22 1   
    15     8     9 1   
    16     8    12 2   
    17     9    10 1   
    18    10    11 1   
    19    10    15 1   
    20    10    23 1   
    21    11    12 1   
    22    11    14 2   
    23    15    16 1   
    24    15    17 1   
    25    15    24 1   
    26    16    25 1   
    27    16    26 1   
    28    16    27 1   
    29    17    28 1   
    30    17    29 1   
    31    17    30 1   
@<TRIPOS>SUBSTRUCTURE
     1 ZMG         1 TEMP              0 ****  ****    0 ROOT
