@<TRIPOS>MOLECULE
ZMH
   46    49     1     0     0
SMALL
abcg2


@<TRIPOS>ATOM
      1 C10        149.8070   -57.5210   126.1360 ca         1 ZMH      -0.094000
      2 C20        144.0170   -59.1690   123.8580 cc         1 ZMH       0.255300
      3 C24        144.4050   -62.1740   120.7280 c3         1 ZMH       0.162300
      4 C26        144.7070   -63.5370   121.3160 c3         1 ZMH       0.080000
      5 C02        144.8930   -62.7180   123.7410 c          1 ZMH       0.600600
      6 C03        144.4460   -61.3240   123.5430 cd         1 ZMH      -0.193600
      7 C04        144.6910   -60.2660   124.4130 cc         1 ZMH      -0.155300
      8 C05        145.4880   -60.1870   125.6790 c6         1 ZMH       0.192300
      9 C07        146.8460   -58.1680   126.3070 c          1 ZMH       0.667100
     10 C09        149.2470   -58.6670   126.7120 ca         1 ZMH      -0.013000
     11 C11        151.1620   -57.2610   126.2820 ca         1 ZMH      -0.120000
     12 C12        151.9660   -58.1380   126.9870 ca         1 ZMH       0.159000
     13 C14        151.4260   -59.2800   127.5560 ca         1 ZMH      -0.028900
     14 C16        150.0720   -59.5430   127.4250 ca         1 ZMH      -0.126000
     15 C18        144.4470   -57.9580   125.9400 c6         1 ZMH       0.109000
     16 C19        144.0100   -57.8110   124.4780 c6         1 ZMH      -0.125700
     17 C23        143.2060   -61.4880   121.3570 c3         1 ZMH       0.059600
     18 F13        153.2850   -57.8730   127.1130 f          1 ZMH      -0.164000
     19 F25        144.1180   -62.4170   119.3730 f          1 ZMH      -0.253000
     20 N06        145.6530   -58.7780   126.0500 n          1 ZMH      -0.436800
     21 N08        147.9020   -59.0230   126.5680 ns         1 ZMH      -0.166000
     22 N21        143.3940   -59.5090   122.7290 nd         1 ZMH      -0.489800
     23 N22        143.6520   -60.8160   122.5550 na         1 ZMH       0.134800
     24 N27        144.8100   -63.6660   122.7710 n          1 ZMH      -0.411800
     25 O17        146.9740   -56.9430   126.3290 o          1 ZMH      -0.626100
     26 BR15       152.5440   -60.4830   128.5180 br         1 ZMH      -0.076100
     27 H1         149.1870   -56.8380   125.5800 ha         1 ZMH       0.151000
     28 H2         145.2670   -61.5050   120.7520 h1         1 ZMH       0.083700
     29 H3         143.9070   -64.2030   120.9830 h1         1 ZMH       0.062200
     30 H4         145.6420   -63.8990   120.8780 h1         1 ZMH       0.062200
     31 H5         144.7740   -65.2300   124.1700 h1         1 ZMH       0.050700
     32 H6         144.6940   -65.7200   122.4640 h1         1 ZMH       0.050700
     33 H7         146.2340   -65.1850   123.1660 h1         1 ZMH       0.050700
     34 H8         144.9890   -60.7330   126.4860 h1         1 ZMH       0.069200
     35 H9         146.4570   -60.6530   125.5270 h1         1 ZMH       0.069200
     36 H10        151.6060   -56.3790   125.8400 ha         1 ZMH       0.137000
     37 H11        149.6530   -60.4340   127.8750 ha         1 ZMH       0.129000
     38 H12        144.6470   -56.9910   126.3880 h1         1 ZMH       0.068200
     39 H13        143.6560   -58.4520   126.5110 h1         1 ZMH       0.068200
     40 H14        144.7030   -57.1470   123.9530 hc         1 ZMH       0.072700
     41 H15        143.0180   -57.3600   124.4250 hc         1 ZMH       0.072700
     42 H16        142.8210   -60.7250   120.6860 h1         1 ZMH       0.092200
     43 H17        142.4140   -62.2050   121.5820 h1         1 ZMH       0.092200
     44 H18        147.6790   -59.9610   126.8600 hn         1 ZMH       0.156000
     45 O01        145.3110   -63.0080   124.8690 o          1 ZMH      -0.560000
     46 C28        145.1520   -65.0320   123.1710 c3         1 ZMH       0.082300
@<TRIPOS>BOND
     1     1    10 ar  
     2     1    11 ar  
     3     1    27 1   
     4     2     7 1   
     5     2    16 1   
     6     2    22 2   
     7     3     4 1   
     8     3    17 1   
     9     3    19 1   
    10     3    28 1   
    11     4    24 1   
    12     4    29 1   
    13     4    30 1   
    14     5     6 1   
    15     5    24 1   
    16     5    45 2   
    17     6     7 2   
    18     6    23 1   
    19     7     8 1   
    20     8    20 1   
    21     8    34 1   
    22     8    35 1   
    23     9    20 1   
    24     9    21 1   
    25     9    25 2   
    26    10    14 ar  
    27    10    21 1   
    28    11    12 ar  
    29    11    36 1   
    30    12    13 ar  
    31    12    18 1   
    32    13    14 ar  
    33    13    26 1   
    34    14    37 1   
    35    15    16 1   
    36    15    20 1   
    37    15    38 1   
    38    15    39 1   
    39    16    40 1   
    40    16    41 1   
    41    17    23 1   
    42    17    42 1   
    43    17    43 1   
    44    21    44 1   
    45    22    23 1   
    46    24    46 1   
    47    31    46 1   
    48    32    46 1   
    49    33    46 1   
@<TRIPOS>SUBSTRUCTURE
     1 ZMH         1 TEMP              0 ****  ****    0 ROOT
