@<TRIPOS>MOLECULE
ZMH
   46    49     1     0     0
SMALL
No Charge or Current Charge


@<TRIPOS>ATOM
      1 C10        149.4840   -57.6240   128.0280 ca         1 ZMH      -0.094000
      2 C20        144.0090   -59.0970   123.1960 cc         1 ZMH       0.255300
      3 C24        143.0540   -63.3180   121.4330 c3         1 ZMH       0.162300
      4 C26        143.6680   -63.9550   122.6790 c3         1 ZMH       0.080000
      5 C02        145.6030   -62.4170   123.1780 c          1 ZMH       0.600600
      6 C03        144.7050   -61.2120   123.0630 cd         1 ZMH      -0.193600
      7 C04        145.0420   -59.9640   123.5350 cc         1 ZMH      -0.155300
      8 C05        146.2730   -59.5000   124.2870 c6         1 ZMH       0.192300
      9 C07        147.0360   -57.8380   126.0530 c          1 ZMH       0.667100
     10 C09        149.3510   -58.5260   126.9460 ca         1 ZMH      -0.013000
     11 C11        150.6530   -57.6220   128.8120 ca         1 ZMH      -0.120000
     12 C12        151.6940   -58.5170   128.5260 ca         1 ZMH       0.159000
     13 C14        151.5710   -59.4200   127.4550 ca         1 ZMH      -0.028900
     14 C16        150.4040   -59.4220   126.6720 ca         1 ZMH      -0.126000
     15 C18        144.7920   -57.5210   124.9510 c6         1 ZMH       0.109000
     16 C19        144.1260   -57.6550   123.5680 c6         1 ZMH      -0.125700
     17 C23        142.5270   -61.9160   121.7430 c3         1 ZMH       0.059600
     18 F13        152.8120   -58.5050   129.2870 f          1 ZMH      -0.164000
     19 F25        142.0320   -64.0890   120.9850 f          1 ZMH      -0.253000
     20 N06        146.0990   -58.2340   125.0700 n          1 ZMH      -0.436800
     21 N08        148.2020   -58.5930   126.1100 ns         1 ZMH      -0.166000
     22 N21        143.0250   -59.6680   122.5490 nd         1 ZMH      -0.489800
     23 N22        143.4380   -60.9910   122.4520 na         1 ZMH       0.134800
     24 N27        145.1090   -63.6750   122.7690 n          1 ZMH      -0.411800
     25 O17        146.8120   -56.8820   126.7840 o          1 ZMH      -0.626100
     26 Br15       152.9810   -60.6530   127.0480 br         1 ZMH      -0.076100
     27 H1         148.6960   -56.9220   128.2820 ha         1 ZMH       0.151000
     28 H2         143.8100   -63.2660   120.6390 h1         1 ZMH       0.083700
     29 H3         143.1640   -63.5970   123.5870 h1         1 ZMH       0.062200
     30 H4         143.5150   -65.0420   122.6340 h1         1 ZMH       0.062200
     31 H5         146.2100   -65.2140   123.7270 h1         1 ZMH       0.050700
     32 H6         145.5810   -65.6460   122.1100 h1         1 ZMH       0.050700
     33 H7         146.9760   -64.5520   122.2530 h1         1 ZMH       0.050700
     34 H8         146.5730   -60.2890   124.9910 h1         1 ZMH       0.069200
     35 H9         147.1040   -59.3650   123.5790 h1         1 ZMH       0.069200
     36 H10        150.7510   -56.9280   129.6430 ha         1 ZMH       0.137000
     37 H11        150.3180   -60.1250   125.8460 ha         1 ZMH       0.129000
     38 H12        144.9300   -56.4510   125.1650 h1         1 ZMH       0.068200
     39 H13        144.1100   -57.9170   125.7170 h1         1 ZMH       0.068200
     40 H14        144.7240   -57.1210   122.8180 hc         1 ZMH       0.072700
     41 H15        143.1400   -57.1730   123.5840 hc         1 ZMH       0.072700
     42 H16        142.2300   -61.4430   120.7990 h1         1 ZMH       0.092200
     43 H17        141.6230   -62.0130   122.3550 h1         1 ZMH       0.092200
     44 H18        148.2470   -59.3330   125.4240 hn         1 ZMH       0.156000
     45 O01        146.7530   -62.3260   123.5870 o          1 ZMH      -0.560000
     46 C28        146.0220   -64.8420   122.7120 c3         1 ZMH       0.082300
@<TRIPOS>BOND
     1     1    10 ar  
     2     1    11 ar  
     3     1    27 1   
     4     2     7 1   
     5     2    16 1   
     6     2    22 2   
     7     3     4 1   
     8     3    17 1   
     9     3    19 1   
    10     3    28 1   
    11     4    24 1   
    12     4    29 1   
    13     4    30 1   
    14     5     6 1   
    15     5    24 1   
    16     5    45 2   
    17     6     7 2   
    18     6    23 1   
    19     7     8 1   
    20     8    20 1   
    21     8    34 1   
    22     8    35 1   
    23     9    20 1   
    24     9    21 1   
    25     9    25 2   
    26    10    14 ar  
    27    10    21 1   
    28    11    12 ar  
    29    11    36 1   
    30    12    13 ar  
    31    12    18 1   
    32    13    14 ar  
    33    13    26 1   
    34    14    37 1   
    35    15    16 1   
    36    15    20 1   
    37    15    38 1   
    38    15    39 1   
    39    16    40 1   
    40    16    41 1   
    41    17    23 1   
    42    17    42 1   
    43    17    43 1   
    44    21    44 1   
    45    22    23 1   
    46    24    46 1   
    47    31    46 1   
    48    32    46 1   
    49    33    46 1   
@<TRIPOS>SUBSTRUCTURE
     1 ZMH         1 TEMP              0 ****  ****    0 ROOT
