@<TRIPOS>MOLECULE
ZMI
   27    28     1     0     0
SMALL
No Charge or Current Charge


@<TRIPOS>ATOM
      1 N1           7.4990    -7.2100    75.9410 ns         1 ZMI      -0.357300
      2 C4           6.4280    -7.1100    76.8340 c          1 ZMI       0.509600
      3 C5           9.5480    -8.6500    75.8290 ca         1 ZMI       0.198000
      4 C6          10.9570    -8.6040    75.8340 ca         1 ZMI      -0.112000
      5 C7          11.7180    -9.6840    75.3490 ca         1 ZMI      -0.105000
      6 C8          11.0790   -10.8310    74.8550 ca         1 ZMI      -0.096000
      7 C10          8.9110    -9.8250    75.3320 ca         1 ZMI       0.167000
      8 N            5.0100    -6.4940    74.8720 nc         1 ZMI      -0.355300
      9 O            3.6170    -6.1580    74.6820 os         1 ZMI      -0.058700
     10 C1           2.9870    -6.2090    75.8990 cc         1 ZMI       0.174300
     11 C2           3.8980    -6.5550    76.8440 cd         1 ZMI      -0.200000
     12 C3           5.1310    -6.7230    76.1780 cd         1 ZMI       0.221500
     13 C9           9.6760   -10.9010    74.8490 ca         1 ZMI      -0.138000
     14 F            7.5610    -9.9520    75.3220 f          1 ZMI      -0.174000
     15 N2           8.8560    -7.5250    76.3350 nu         1 ZMI      -0.647200
     16 O1           6.5530    -7.3210    78.0390 o          1 ZMI      -0.578100
     17 H1           7.3100    -6.9680    74.9660 hn         1 ZMI       0.375500
     18 H2          11.4690    -7.7240    76.2140 ha         1 ZMI       0.119000
     19 H3          12.8040    -9.6290    75.3580 ha         1 ZMI       0.119000
     20 H4          11.6690   -11.6660    74.4810 ha         1 ZMI       0.120000
     21 H5           1.3160    -4.8830    75.6430 hc         1 ZMI       0.065367
     22 H6           0.9400    -6.5980    75.3790 hc         1 ZMI       0.065367
     23 H7           1.1700    -5.9830    77.0280 hc         1 ZMI       0.065367
     24 H8           3.7140    -6.6790    77.9040 ha         1 ZMI       0.170000
     25 H9           9.1780   -11.7910    74.4740 ha         1 ZMI       0.131000
     26 H10          9.4110    -6.7040    76.6080 hn         1 ZMI       0.458000
     27 C            1.5220    -5.9010    75.9930 c3         1 ZMI      -0.135400
@<TRIPOS>BOND
     1     1     2 1   
     2     1    15 1   
     3     1    17 1   
     4     2    12 1   
     5     2    16 2   
     6     3     4 ar  
     7     3     7 ar  
     8     3    15 1   
     9     4     5 ar  
    10     4    18 1   
    11     5     6 ar  
    12     5    19 1   
    13     6    13 ar  
    14     6    20 1   
    15     7    13 ar  
    16     7    14 1   
    17     8     9 1   
    18     8    12 2   
    19     9    10 1   
    20    10    11 2   
    21    10    27 1   
    22    11    12 1   
    23    11    24 1   
    24    13    25 1   
    25    15    26 1   
    26    21    27 1   
    27    22    27 1   
    28    23    27 1   
@<TRIPOS>SUBSTRUCTURE
     1 ZMI         1 TEMP              0 ****  ****    0 ROOT
