@<TRIPOS>MOLECULE
ZMI
   27    28     1     0     0
SMALL
abcg2


@<TRIPOS>ATOM
      1 N1           7.6350    -6.8140    75.1340 ns         1 ZMI      -0.357300
      2 C4           6.8380    -7.0010    76.2050 c          1 ZMI       0.509600
      3 C5           9.4500    -8.3250    75.3470 ca         1 ZMI       0.198000
      4 C6          10.4240    -8.6360    76.2910 ca         1 ZMI      -0.112000
      5 C7          10.9480    -9.9160    76.3880 ca         1 ZMI      -0.105000
      6 C8          10.4830   -10.9250    75.5560 ca         1 ZMI      -0.096000
      7 C10          9.0180    -9.3510    74.5110 ca         1 ZMI       0.167000
      8 N            4.9640    -6.2610    74.8260 nc         1 ZMI      -0.355300
      9 O            3.6310    -6.1090    74.9680 os         1 ZMI      -0.058700
     10 C1           3.2520    -6.4710    76.2020 cc         1 ZMI       0.174300
     11 C2           4.3460    -6.8680    76.8970 cd         1 ZMI      -0.200000
     12 C3           5.3980    -6.7120    75.9680 cd         1 ZMI       0.221500
     13 C9           9.5050   -10.6370    74.6130 ca         1 ZMI      -0.138000
     14 F            8.1020    -9.0810    73.5650 f          1 ZMI      -0.174000
     15 N2           8.9940    -7.0080    75.1890 nu         1 ZMI      -0.647200
     16 O1           7.2270    -7.3750    77.2930 o          1 ZMI      -0.578100
     17 H1           7.2600    -6.4730    74.2620 hn         1 ZMI       0.375500
     18 H2          10.7750    -7.8550    76.9570 ha         1 ZMI       0.119000
     19 H3          11.7080   -10.1270    77.1280 ha         1 ZMI       0.119000
     20 H4          10.8770   -11.9290    75.6330 ha         1 ZMI       0.120000
     21 H5           1.4530    -5.3500    76.4340 hc         1 ZMI       0.065367
     22 H6           1.2130    -7.0080    75.8860 hc         1 ZMI       0.065367
     23 H7           1.6560    -6.6910    77.5650 hc         1 ZMI       0.065367
     24 H8           4.3940    -7.2200    77.9130 ha         1 ZMI       0.170000
     25 H9           9.1330   -11.4010    73.9420 ha         1 ZMI       0.131000
     26 H10          9.4350    -6.3620    75.8320 hn         1 ZMI       0.458000
     27 C            1.8150    -6.3740    76.5380 c3         1 ZMI      -0.135400
@<TRIPOS>BOND
     1     1     2 1   
     2     1    15 1   
     3     1    17 1   
     4     2    12 1   
     5     2    16 2   
     6     3     4 ar  
     7     3     7 ar  
     8     3    15 1   
     9     4     5 ar  
    10     4    18 1   
    11     5     6 ar  
    12     5    19 1   
    13     6    13 ar  
    14     6    20 1   
    15     7    13 ar  
    16     7    14 1   
    17     8     9 1   
    18     8    12 2   
    19     9    10 1   
    20    10    11 2   
    21    10    27 1   
    22    11    12 1   
    23    11    24 1   
    24    13    25 1   
    25    15    26 1   
    26    21    27 1   
    27    22    27 1   
    28    23    27 1   
@<TRIPOS>SUBSTRUCTURE
     1 ZMI         1 TEMP              0 ****  ****    0 ROOT
