@<TRIPOS>MOLECULE
ZMJ
   42    44     1     0     0
SMALL
No Charge or Current Charge


@<TRIPOS>ATOM
      1 C11         -8.4310    -6.3800    -0.8240 ca         1 ZMJ       0.007200
      2 C13         -6.2690    -7.0990     0.0660 ca         1 ZMJ      -0.081000
      3 C14         -5.9070    -7.5950    -1.1950 ca         1 ZMJ      -0.150000
      4 C16         -8.0350    -6.8570    -2.0930 ca         1 ZMJ      -0.155000
      5 C17         -6.5200    -5.6790    -5.0590 c3         1 ZMJ      -0.347400
      6 C18         -5.0730    -5.2470    -4.7150 c3         1 ZMJ      -0.066100
      7 C01        -10.2110    -4.9130    -1.6920 cc         1 ZMJ      -0.021400
      8 C02        -12.1960    -4.2080    -0.4330 c          1 ZMJ       0.564600
      9 C03        -11.7760    -5.1430     0.6690 ca         1 ZMJ      -0.164600
     10 C04        -12.5930    -5.2880     1.8130 ca         1 ZMJ      -0.045000
     11 C05        -12.2560    -6.2060     2.8180 ca         1 ZMJ      -0.132000
     12 C06        -11.1150    -7.0050     2.6750 ca         1 ZMJ      -0.075000
     13 C07        -10.2950    -6.8610     1.5450 ca         1 ZMJ      -0.124000
     14 C08        -10.5870    -5.9000     0.5460 ca         1 ZMJ       0.026200
     15 C09         -9.7400    -5.6990    -0.6580 cd         1 ZMJ      -0.113400
     16 C12         -7.5180    -6.4870     0.2470 ca         1 ZMJ      -0.121000
     17 C15         -6.7790    -7.4660    -2.2860 ca         1 ZMJ       0.287000
     18 N01        -11.4010    -4.1880    -1.5990 n          1 ZMJ      -0.289000
     19 N02         -6.3620    -7.9590    -3.5190 nu         1 ZMJ      -0.897100
     20 O01        -13.1980    -3.5070    -0.3280 o          1 ZMJ      -0.555000
     21 O02         -5.8020    -8.0960    -5.9260 o          1 ZMJ      -0.531000
     22 O03         -8.2110    -7.7480    -5.1990 o          1 ZMJ      -0.531000
     23 S01         -6.7840    -7.4610    -5.0450 s6         1 ZMJ       1.218100
     24 H1          -5.5760    -7.1780     0.9020 ha         1 ZMJ       0.119000
     25 H2          -4.9360    -8.0660    -1.3250 ha         1 ZMJ       0.117000
     26 H3          -8.7280    -6.7870    -2.9230 ha         1 ZMJ       0.143000
     27 H4          -7.2290    -5.2580    -4.3380 h1         1 ZMJ       0.101200
     28 H5          -6.7920    -5.3460    -6.0660 h1         1 ZMJ       0.101200
     29 H6          -4.9810    -4.1550    -4.7660 hc         1 ZMJ       0.049033
     30 H7          -4.7950    -5.5600    -3.7020 hc         1 ZMJ       0.049033
     31 H8          -4.3540    -5.6790    -5.4220 hc         1 ZMJ       0.049033
     32 H9          -9.6840    -4.7300    -2.6230 h4         1 ZMJ       0.197000
     33 H10        -13.5020    -4.6990     1.9200 ha         1 ZMJ       0.137000
     34 H11        -12.8940    -6.3170     3.6920 ha         1 ZMJ       0.120000
     35 H12        -10.8700    -7.7430     3.4350 ha         1 ZMJ       0.115000
     36 H13         -9.4500    -7.5340     1.4490 ha         1 ZMJ       0.123000
     37 H14        -11.7720    -2.2620    -2.4050 h1         1 ZMJ       0.054033
     38 H15        -11.1910    -3.4600    -3.5950 h1         1 ZMJ       0.054033
     39 H16        -12.8660    -3.5480    -2.9950 h1         1 ZMJ       0.054033
     40 H17         -7.7580    -6.0620     1.2180 ha         1 ZMJ       0.126000
     41 H18         -5.4040    -8.2690    -3.5990 hn         1 ZMJ       0.500000
     42 C10        -11.8310    -3.3130    -2.7160 c3         1 ZMJ       0.085300
@<TRIPOS>BOND
     1     1     4 ar  
     2     1    15 1   
     3     1    16 ar  
     4     2     3 ar  
     5     2    16 ar  
     6     2    24 1   
     7     3    17 ar  
     8     3    25 1   
     9     4    17 ar  
    10     4    26 1   
    11     5     6 1   
    12     5    23 1   
    13     5    27 1   
    14     5    28 1   
    15     6    29 1   
    16     6    30 1   
    17     6    31 1   
    18     7    15 2   
    19     7    18 1   
    20     7    32 1   
    21     8     9 1   
    22     8    18 1   
    23     8    20 2   
    24     9    10 ar  
    25     9    14 ar  
    26    10    11 ar  
    27    10    33 1   
    28    11    12 ar  
    29    11    34 1   
    30    12    13 ar  
    31    12    35 1   
    32    13    14 ar  
    33    13    36 1   
    34    14    15 1   
    35    16    40 1   
    36    17    19 1   
    37    18    42 1   
    38    19    23 1   
    39    19    41 1   
    40    21    23 2   
    41    22    23 2   
    42    37    42 1   
    43    38    42 1   
    44    39    42 1   
@<TRIPOS>SUBSTRUCTURE
     1 ZMJ         1 TEMP              0 ****  ****    0 ROOT
