@<TRIPOS>MOLECULE
ZMJ
   42    44     1     0     0
SMALL
abcg2


@<TRIPOS>ATOM
      1 C11         -8.3470    -6.2560    -0.7620 ca         1 ZMJ       0.007200
      2 C13         -6.1410    -6.7630     0.0740 ca         1 ZMJ      -0.081000
      3 C14         -5.7980    -7.3440    -1.1390 ca         1 ZMJ      -0.150000
      4 C16         -8.0120    -6.8660    -1.9730 ca         1 ZMJ      -0.155000
      5 C17         -6.6590    -5.8400    -5.0500 c3         1 ZMJ      -0.347400
      6 C18         -5.1980    -5.4390    -4.9240 c3         1 ZMJ      -0.066100
      7 C01        -10.0760    -4.7070    -1.5230 cc         1 ZMJ      -0.021400
      8 C02        -12.1930    -4.2530    -0.4500 c          1 ZMJ       0.564600
      9 C03        -11.8170    -5.2550     0.5490 ca         1 ZMJ      -0.164600
     10 C04        -12.7190    -5.5390     1.5850 ca         1 ZMJ      -0.045000
     11 C05        -12.4210    -6.4970     2.5310 ca         1 ZMJ      -0.132000
     12 C06        -11.2120    -7.2000     2.4470 ca         1 ZMJ      -0.075000
     13 C07        -10.3110    -6.9310     1.4380 ca         1 ZMJ      -0.124000
     14 C08        -10.5830    -5.9430     0.4710 ca         1 ZMJ       0.026200
     15 C09         -9.6800    -5.6270    -0.6090 cd         1 ZMJ      -0.113400
     16 C12         -7.4020    -6.2120     0.2660 ca         1 ZMJ      -0.121000
     17 C15         -6.7370    -7.3950    -2.1700 ca         1 ZMJ       0.287000
     18 N01        -11.2780    -4.0470    -1.4630 n          1 ZMJ      -0.289000
     19 N02         -6.3570    -8.0180    -3.3830 nu         1 ZMJ      -0.897100
     20 O01        -13.2520    -3.6160    -0.4290 o          1 ZMJ      -0.555000
     21 O02         -6.0660    -8.3110    -5.8030 o          1 ZMJ      -0.531000
     22 O03         -8.3440    -7.8410    -4.9210 o          1 ZMJ      -0.531000
     23 S01         -6.9210    -7.5990    -4.8810 s6         1 ZMJ       1.218100
     24 H1          -5.4070    -6.7210     0.8690 ha         1 ZMJ       0.119000
     25 H2          -4.8090    -7.7560    -1.2920 ha         1 ZMJ       0.117000
     26 H3          -8.7540    -6.9340    -2.7540 ha         1 ZMJ       0.143000
     27 H4          -7.2870    -5.3710    -4.2920 h1         1 ZMJ       0.101200
     28 H5          -7.0760    -5.6050    -6.0310 h1         1 ZMJ       0.101200
     29 H6          -5.1140    -4.3620    -5.0660 hc         1 ZMJ       0.049033
     30 H7          -4.8050    -5.6820    -3.9360 hc         1 ZMJ       0.049033
     31 H8          -4.5870    -5.9340    -5.6780 hc         1 ZMJ       0.049033
     32 H9          -9.4430    -4.4290    -2.3520 h4         1 ZMJ       0.197000
     33 H10        -13.6510    -4.9930     1.6210 ha         1 ZMJ       0.137000
     34 H11        -13.1200    -6.7110     3.3290 ha         1 ZMJ       0.120000
     35 H12        -10.9830    -7.9660     3.1780 ha         1 ZMJ       0.115000
     36 H13         -9.3870    -7.4880     1.3820 ha         1 ZMJ       0.123000
     37 H14        -11.7310    -2.0710    -2.0210 h1         1 ZMJ       0.054033
     38 H15        -10.8070    -3.0180    -3.2110 h1         1 ZMJ       0.054033
     39 H16        -12.5440    -3.3200    -2.9750 h1         1 ZMJ       0.054033
     40 H17         -7.6460    -5.7330     1.2050 ha         1 ZMJ       0.126000
     41 H18         -5.3890    -8.3120    -3.4270 hn         1 ZMJ       0.500000
     42 C10        -11.6110    -3.0510    -2.4820 c3         1 ZMJ       0.085300
@<TRIPOS>BOND
     1     1     4 ar  
     2     1    15 1   
     3     1    16 ar  
     4     2     3 ar  
     5     2    16 ar  
     6     2    24 1   
     7     3    17 ar  
     8     3    25 1   
     9     4    17 ar  
    10     4    26 1   
    11     5     6 1   
    12     5    23 1   
    13     5    27 1   
    14     5    28 1   
    15     6    29 1   
    16     6    30 1   
    17     6    31 1   
    18     7    15 2   
    19     7    18 1   
    20     7    32 1   
    21     8     9 1   
    22     8    18 1   
    23     8    20 2   
    24     9    10 ar  
    25     9    14 ar  
    26    10    11 ar  
    27    10    33 1   
    28    11    12 ar  
    29    11    34 1   
    30    12    13 ar  
    31    12    35 1   
    32    13    14 ar  
    33    13    36 1   
    34    14    15 1   
    35    16    40 1   
    36    17    19 1   
    37    18    42 1   
    38    19    23 1   
    39    19    41 1   
    40    21    23 2   
    41    22    23 2   
    42    37    42 1   
    43    38    42 1   
    44    39    42 1   
@<TRIPOS>SUBSTRUCTURE
     1 ZMJ         1 TEMP              0 ****  ****    0 ROOT
