@<TRIPOS>MOLECULE
ZMM
   42    45     1     0     0
SMALL
abcg2


@<TRIPOS>ATOM
      1 C11          9.7850    -6.6080    -0.0350 ca         1 ZMM      -0.007800
      2 C13          7.6770    -7.0800    -1.1070 ca         1 ZMM      -0.090000
      3 C14          7.1680    -7.5870     0.0830 ca         1 ZMM      -0.156000
      4 C16          9.2750    -7.1140     1.1590 ca         1 ZMM      -0.121000
      5 C17          5.9860    -8.1910     2.6530 c5         1 ZMM       0.096000
      6 C18          5.8680    -8.4500     4.1560 c5         1 ZMM      -0.091400
      7 C19          7.1580    -9.1990     4.4840 c5         1 ZMM      -0.165400
      8 C01         11.5010    -5.0730     0.8010 cc         1 ZMM      -0.025400
      9 C02         13.7620    -4.8440    -0.0220 c          1 ZMM       0.563600
     10 C03         13.4470    -5.9160    -0.9680 ca         1 ZMM      -0.165600
     11 C04         14.4490    -6.3520    -1.8460 ca         1 ZMM      -0.046000
     12 C05         14.2080    -7.3800    -2.7320 ca         1 ZMM      -0.134000
     13 C06         12.9520    -8.0020    -2.7450 ca         1 ZMM      -0.077000
     14 C07         11.9530    -7.5840    -1.8920 ca         1 ZMM      -0.123000
     15 C08         12.1680    -6.5220    -0.9900 ca         1 ZMM       0.027200
     16 C09         11.1610    -6.0530    -0.0690 cd         1 ZMM      -0.106400
     17 C12          8.9750    -6.5960    -1.1760 ca         1 ZMM      -0.123000
     18 C15          7.9690    -7.6100     1.2280 ca         1 ZMM      -0.016000
     19 C20          8.1470    -8.7190     3.4400 c          1 ZMM       0.563000
     20 N01         12.7440    -4.4900     0.8410 n          1 ZMM      -0.290000
     21 N02          7.4390    -8.1070     2.4360 n          1 ZMM      -0.238400
     22 O01         14.8570    -4.2740     0.0390 o          1 ZMM      -0.560000
     23 H1           7.0470    -7.0610    -1.9870 ha         1 ZMM       0.114000
     24 H2           6.1570    -7.9650     0.1130 ha         1 ZMM       0.113000
     25 H3           9.8970    -7.1280     2.0390 ha         1 ZMM       0.142000
     26 H4           5.5090    -7.2640     2.3380 h1         1 ZMM       0.053200
     27 H5           5.5640    -9.0140     2.0690 h1         1 ZMM       0.053200
     28 H6           5.8400    -7.4990     4.6910 hc         1 ZMM       0.060200
     29 H7           4.9680    -9.0090     4.4020 hc         1 ZMM       0.060200
     30 H8           7.0460   -10.2800     4.3550 hc         1 ZMM       0.080700
     31 H9           7.5460    -9.0230     5.4860 hc         1 ZMM       0.080700
     32 H10         10.7910    -4.6800     1.5140 h4         1 ZMM       0.201000
     33 H11         15.4150    -5.8670    -1.8080 ha         1 ZMM       0.136000
     34 H12         14.9860    -7.7130    -3.4070 ha         1 ZMM       0.118000
     35 H13         12.7640    -8.8210    -3.4280 ha         1 ZMM       0.114000
     36 H14         10.9920    -8.0790    -1.9070 ha         1 ZMM       0.124000
     37 H15         12.1340    -3.2860     2.4250 h1         1 ZMM       0.053033
     38 H16         13.8630    -3.7020     2.4340 h1         1 ZMM       0.053033
     39 H17         13.2540    -2.4990     1.2890 h1         1 ZMM       0.053033
     40 H18          9.3560    -6.1910    -2.1040 ha         1 ZMM       0.122000
     41 C10         13.0160    -3.4270     1.8080 c3         1 ZMM       0.085300
     42 O02          9.3590    -8.8810     3.4750 o          1 ZMM      -0.530000
@<TRIPOS>BOND
     1     1     4 ar  
     2     1    16 1   
     3     1    17 ar  
     4     2     3 ar  
     5     2    17 ar  
     6     2    23 1   
     7     3    18 ar  
     8     3    24 1   
     9     4    18 ar  
    10     4    25 1   
    11     5     6 1   
    12     5    21 1   
    13     5    26 1   
    14     5    27 1   
    15     6     7 1   
    16     6    28 1   
    17     6    29 1   
    18     7    19 1   
    19     7    30 1   
    20     7    31 1   
    21     8    16 2   
    22     8    20 1   
    23     8    32 1   
    24     9    10 1   
    25     9    20 1   
    26     9    22 2   
    27    10    11 ar  
    28    10    15 ar  
    29    11    12 ar  
    30    11    33 1   
    31    12    13 ar  
    32    12    34 1   
    33    13    14 ar  
    34    13    35 1   
    35    14    15 ar  
    36    14    36 1   
    37    15    16 1   
    38    17    40 1   
    39    18    21 1   
    40    19    21 1   
    41    19    42 2   
    42    20    41 1   
    43    37    41 1   
    44    38    41 1   
    45    39    41 1   
@<TRIPOS>SUBSTRUCTURE
     1 ZMM         1 TEMP              0 ****  ****    0 ROOT
