@<TRIPOS>MOLECULE
ZMN
   52    54     1     0     0
SMALL
abcg2


@<TRIPOS>ATOM
      1 N1         -15.5240    17.0120    28.2480 ns         1 ZMN      -0.516900
      2 N3         -18.7340    14.3800    25.4250 n          1 ZMN      -0.406800
      3 C4         -15.3860    22.5470    25.2250 ca         1 ZMN      -0.071000
      4 C5         -15.5510    21.7280    26.3400 ca         1 ZMN      -0.200000
      5 C6         -14.4180    21.2150    26.9710 ca         1 ZMN       0.139100
      6 C7         -15.7250    20.0130    28.5930 c3         1 ZMN       0.163600
      7 C8         -15.4880    19.0330    29.7220 c3         1 ZMN      -0.110400
      8 C10        -16.6250    16.2660    28.5410 c          1 ZMN       0.645100
      9 C13        -18.9840    14.0340    26.8220 c6         1 ZMN       0.091500
     10 C15        -19.5760    14.2290    24.3770 c          1 ZMN       0.543600
     11 C17        -21.9610    13.4530    23.8250 cc         1 ZMN      -0.104000
     12 C20        -13.1460    21.5310    26.4870 ca         1 ZMN      -0.147000
     13 C11        -16.9730    15.9480    26.0850 c6         1 ZMN       0.083000
     14 C12        -17.3480    14.7650    25.1970 c6         1 ZMN       0.091500
     15 C14        -18.6560    15.2160    27.7180 c6         1 ZMN       0.083000
     16 C16        -21.0200    14.0380    24.6180 cd         1 ZMN       0.076500
     17 C18        -23.2180    13.5980    24.4820 cc         1 ZMN      -0.151000
     18 C19        -22.9490    14.2800    25.6270 cd         1 ZMN       0.183200
     19 C2         -12.9830    22.3530    25.3780 ca         1 ZMN      -0.040300
     20 C3         -14.1230    22.8600    24.7430 ca         1 ZMN      -0.147000
     21 C9         -14.8020    17.7360    29.2820 c3         1 ZMN       0.117000
     22 N2         -17.2880    15.6770    27.4840 n          1 ZMN      -0.422800
     23 O1         -14.4520    20.3960    28.0590 os         1 ZMN      -0.365100
     24 O2         -16.9910    16.0910    29.7100 o          1 ZMN      -0.645100
     25 O3         -19.1910    14.2590    23.2020 o          1 ZMN      -0.593100
     26 O4         -21.6330    14.5610    25.7370 os         1 ZMN      -0.227000
     27 BR1        -24.0490    14.8800    27.0080 br         1 ZMN      -0.089200
     28 H13        -15.3570    17.2990    27.3000 hn         1 ZMN       0.309500
     29 H5         -16.2640    22.9410    24.7280 ha         1 ZMN       0.111000
     30 H6         -16.5440    21.4990    26.6970 ha         1 ZMN       0.116000
     31 H7         -16.2520    20.9000    28.9570 h1         1 ZMN       0.035700
     32 H8         -16.3300    19.5580    27.8040 h1         1 ZMN       0.035700
     33 H10        -14.8790    19.5060    30.4970 hc         1 ZMN       0.068200
     34 H9         -16.4560    18.7950    30.1680 hc         1 ZMN       0.068200
     35 H18        -20.0110    13.7280    26.9690 h1         1 ZMN       0.068200
     36 H19        -18.3330    13.1910    27.0780 h1         1 ZMN       0.068200
     37 H22        -21.7760    12.9690    22.8810 ha         1 ZMN       0.161000
     38 H24        -12.2830    21.1160    26.9940 ha         1 ZMN       0.124000
     39 H2         -11.2370    23.6080    25.3990 hc         1 ZMN       0.044700
     40 H1         -10.8930    21.9100    25.0880 hc         1 ZMN       0.044700
     41 H3         -11.6070    22.9210    23.8200 hc         1 ZMN       0.044700
     42 H14        -17.5010    16.8460    25.7380 h1         1 ZMN       0.057450
     43 H15        -15.9050    16.1060    25.9630 h1         1 ZMN       0.057450
     44 H17        -17.2210    15.0340    24.1530 h1         1 ZMN       0.068200
     45 H16        -16.6980    13.9140    25.4210 h1         1 ZMN       0.068200
     46 H21        -19.3660    16.0290    27.5170 h1         1 ZMN       0.057450
     47 H20        -18.7480    14.9270    28.7590 h1         1 ZMN       0.057450
     48 H23        -24.1830    13.2520    24.1520 ha         1 ZMN       0.158000
     49 H4         -14.0150    23.4950    23.8730 ha         1 ZMN       0.114000
     50 H12        -13.8100    17.9530    28.8870 h1         1 ZMN       0.065700
     51 H11        -14.6810    17.0810    30.1440 h1         1 ZMN       0.065700
     52 C1         -11.6050    22.7120    24.8910 c3         1 ZMN      -0.048800
@<TRIPOS>BOND
     1     1     8 1   
     2     1    21 1   
     3     1    28 1   
     4     2     9 1   
     5     2    10 1   
     6     2    14 1   
     7     3     4 ar  
     8     3    20 ar  
     9     3    29 1   
    10     4     5 ar  
    11     4    30 1   
    12     5    12 ar  
    13     5    23 1   
    14     6     7 1   
    15     6    23 1   
    16     6    31 1   
    17     6    32 1   
    18     7    21 1   
    19     7    33 1   
    20     7    34 1   
    21     8    22 1   
    22     8    24 2   
    23     9    15 1   
    24     9    35 1   
    25     9    36 1   
    26    10    16 1   
    27    10    25 2   
    28    11    16 2   
    29    11    17 1   
    30    11    37 1   
    31    12    19 ar  
    32    12    38 1   
    33    13    14 1   
    34    13    22 1   
    35    13    42 1   
    36    13    43 1   
    37    14    44 1   
    38    14    45 1   
    39    15    22 1   
    40    15    46 1   
    41    15    47 1   
    42    16    26 1   
    43    17    18 2   
    44    17    48 1   
    45    18    26 1   
    46    18    27 1   
    47    19    20 ar  
    48    19    52 1   
    49    20    49 1   
    50    21    50 1   
    51    21    51 1   
    52    39    52 1   
    53    40    52 1   
    54    41    52 1   
@<TRIPOS>SUBSTRUCTURE
     1 ZMN         1 TEMP              0 ****  ****    0 ROOT
