@<TRIPOS>MOLECULE
ZMN
   52    54     1     0     0
SMALL
No Charge or Current Charge


@<TRIPOS>ATOM
      1 N1         -15.4490    17.0140    28.4970 ns         1 ZMN      -0.516900
      2 N3         -18.8530    14.6560    25.4240 n          1 ZMN      -0.406800
      3 C4         -15.4680    22.5900    25.2390 ca         1 ZMN      -0.071000
      4 C5         -15.5710    21.7680    26.3740 ca         1 ZMN      -0.200000
      5 C6         -14.4090    21.2040    26.9430 ca         1 ZMN       0.139100
      6 C7         -15.6790    20.0450    28.7110 c3         1 ZMN       0.163600
      7 C8         -15.3500    19.1010    29.8850 c3         1 ZMN      -0.110400
      8 C10        -16.5720    16.2830    28.7970 c          1 ZMN       0.645100
      9 C13        -19.0390    14.1040    26.7940 c6         1 ZMN       0.091500
     10 C15        -19.6240    14.1950    24.3230 c          1 ZMN       0.543600
     11 C17        -21.9620    13.5090    23.5790 cc         1 ZMN      -0.104000
     12 C20        -13.1550    21.4690    26.3670 ca         1 ZMN      -0.147000
     13 C11        -16.8800    16.0150    26.2910 c6         1 ZMN       0.083000
     14 C12        -17.4410    15.0590    25.2060 c6         1 ZMN       0.091500
     15 C14        -18.5720    15.0670    27.9090 c6         1 ZMN       0.083000
     16 C16        -21.1050    14.0240    24.5190 cd         1 ZMN       0.076500
     17 C18        -23.2550    13.5850    24.1320 cc         1 ZMN      -0.151000
     18 C19        -23.1060    14.1540    25.3640 cd         1 ZMN       0.183200
     19 C2         -13.0470    22.2900    25.2280 ca         1 ZMN      -0.040300
     20 C3         -14.2100    22.8500    24.6690 ca         1 ZMN      -0.147000
     21 C9         -14.6620    17.7820    29.4670 c3         1 ZMN       0.117000
     22 N2         -17.2240    15.6730    27.7070 n          1 ZMN      -0.422800
     23 O1         -14.4460    20.3890    28.0550 os         1 ZMN      -0.365100
     24 O2         -16.9770    16.1700    29.9430 o          1 ZMN      -0.645100
     25 O3         -19.0910    13.9850    23.2380 o          1 ZMN      -0.593100
     26 O4         -21.7940    14.4610    25.6360 os         1 ZMN      -0.227000
     27 Br1        -24.4460    14.5490    26.6300 br         1 ZMN      -0.089200
     28 H13        -15.1740    17.0470    27.5260 hn         1 ZMN       0.309500
     29 H5         -16.3630    23.0270    24.8000 ha         1 ZMN       0.111000
     30 H6         -16.5550    21.5830    26.7960 ha         1 ZMN       0.116000
     31 H7         -16.1750    20.9450    29.0990 h1         1 ZMN       0.035700
     32 H8         -16.3650    19.5440    28.0160 h1         1 ZMN       0.035700
     33 H10        -14.7050    19.6290    30.5980 hc         1 ZMN       0.068200
     34 H9         -16.2780    18.8690    30.4190 hc         1 ZMN       0.068200
     35 H18        -20.0700    13.8020    26.9980 h1         1 ZMN       0.068200
     36 H19        -18.4390    13.1860    26.8700 h1         1 ZMN       0.068200
     37 H22        -21.7060    13.1180    22.5980 ha         1 ZMN       0.161000
     38 H24        -12.2640    21.0340    26.8100 ha         1 ZMN       0.124000
     39 H2         -11.2310    23.4630    25.0670 hc         1 ZMN       0.044700
     40 H1         -10.9970    21.7340    24.7600 hc         1 ZMN       0.044700
     41 H3         -11.7630    22.7510    23.5340 hc         1 ZMN       0.044700
     42 H14        -17.2620    17.0260    26.0880 h1         1 ZMN       0.057450
     43 H15        -15.7900    16.0490    26.1640 h1         1 ZMN       0.057450
     44 H17        -17.3350    15.5460    24.2260 h1         1 ZMN       0.068200
     45 H16        -16.8210    14.1510    25.1830 h1         1 ZMN       0.068200
     46 H21        -19.3030    15.8830    27.9920 h1         1 ZMN       0.057450
     47 H20        -18.5910    14.5210    28.8630 h1         1 ZMN       0.057450
     48 H23        -24.1770    13.2580    23.6630 ha         1 ZMN       0.158000
     49 H4         -14.1410    23.4900    23.7920 ha         1 ZMN       0.114000
     50 H12        -13.6820    18.0050    29.0230 h1         1 ZMN       0.065700
     51 H11        -14.4880    17.1620    30.3580 h1         1 ZMN       0.065700
     52 C1         -11.6860    22.5740    24.6140 c3         1 ZMN      -0.048800
@<TRIPOS>BOND
     1     1     8 1   
     2     1    21 1   
     3     1    28 1   
     4     2     9 1   
     5     2    10 1   
     6     2    14 1   
     7     3     4 ar  
     8     3    20 ar  
     9     3    29 1   
    10     4     5 ar  
    11     4    30 1   
    12     5    12 ar  
    13     5    23 1   
    14     6     7 1   
    15     6    23 1   
    16     6    31 1   
    17     6    32 1   
    18     7    21 1   
    19     7    33 1   
    20     7    34 1   
    21     8    22 1   
    22     8    24 2   
    23     9    15 1   
    24     9    35 1   
    25     9    36 1   
    26    10    16 1   
    27    10    25 2   
    28    11    16 2   
    29    11    17 1   
    30    11    37 1   
    31    12    19 ar  
    32    12    38 1   
    33    13    14 1   
    34    13    22 1   
    35    13    42 1   
    36    13    43 1   
    37    14    44 1   
    38    14    45 1   
    39    15    22 1   
    40    15    46 1   
    41    15    47 1   
    42    16    26 1   
    43    17    18 2   
    44    17    48 1   
    45    18    26 1   
    46    18    27 1   
    47    19    20 ar  
    48    19    52 1   
    49    20    49 1   
    50    21    50 1   
    51    21    51 1   
    52    39    52 1   
    53    40    52 1   
    54    41    52 1   
@<TRIPOS>SUBSTRUCTURE
     1 ZMN         1 TEMP              0 ****  ****    0 ROOT
