@<TRIPOS>MOLECULE
ZMR
   42    42     1     0     0
SMALL
No Charge or Current Charge


@<TRIPOS>ATOM
      1 C1          -3.6940    -0.3710     0.9090 c          1 ZMR       0.727200
      2 O1A         -3.7880    -0.6240     2.1050 o          1 ZMR      -0.698000
      3 O1B         -4.6740    -0.3100     0.1750 o          1 ZMR      -0.698000
      4 C2          -2.3020    -0.1240     0.3090 ce         1 ZMR       0.032900
      5 C3          -2.1020     0.1560    -1.0060 c2         1 ZMR      -0.367200
      6 C4          -0.7350     0.3840    -1.6090 c6         1 ZMR       0.200700
      7 C5           0.3720    -0.2200    -0.6910 c6         1 ZMR       0.064700
      8 N5           1.7260     0.1870    -1.1400 ns         1 ZMR      -0.500900
      9 C10          2.5730    -0.5700    -1.9160 c          1 ZMR       0.609100
     10 O10          2.3370    -1.7300    -2.2220 o          1 ZMR      -0.588100
     11 C11          3.8480     0.1460    -2.3450 c3         1 ZMR      -0.183100
     12 C6           0.0850     0.2390     0.7680 c6         1 ZMR       0.128300
     13 O6          -1.2310    -0.1960     1.1980 os         1 ZMR      -0.323100
     14 C7           1.1080    -0.3220     1.8170 c3         1 ZMR       0.157300
     15 O7           0.8810    -1.7320     2.0270 oh         1 ZMR      -0.721000
     16 C8           1.0610     0.4270     3.1880 c3         1 ZMR       0.132300
     17 O8           1.3500     1.8260     3.0100 oh         1 ZMR      -0.626000
     18 C9           2.0760    -0.1300     4.2250 c3         1 ZMR       0.126600
     19 O9           2.0730     0.6910     5.4080 oh         1 ZMR      -0.705000
     20 NE          -0.7170    -0.1540    -2.9810 n2         1 ZMR      -0.692900
     21 CZ          -0.1780     0.4660    -3.9350 c2         1 ZMR       0.776100
     22 NH1         -0.1430     0.0290    -5.1680 nv         1 ZMR      -1.050700
     23 NH2          0.4010     1.6430    -3.9680 nv         1 ZMR      -1.050700
     24 H3          -2.9450     0.2170    -1.6950 ha         1 ZMR       0.209000
     25 H4          -0.5830     1.4730    -1.6420 h1         1 ZMR      -0.008300
     26 H5           0.2950    -1.3160    -0.7270 h1         1 ZMR       0.120700
     27 HN5          2.0200     1.1390    -0.9630 hn         1 ZMR       0.287500
     28 H111         4.5100    -0.4900    -2.9430 hc         1 ZMR       0.050367
     29 H112         3.5770     1.0630    -2.8810 hc         1 ZMR       0.050367
     30 H113         4.3560     0.5370    -1.4570 hc         1 ZMR       0.050367
     31 H6           0.1090     1.3370     0.7900 h1         1 ZMR       0.041700
     32 H7           2.1200    -0.1750     1.4140 h1         1 ZMR       0.051700
     33 HO7         -0.0970    -1.8550     1.9690 ho         1 ZMR       0.529000
     34 H8           0.0530     0.3010     3.6090 h1         1 ZMR       0.124700
     35 HO8          1.6790     2.1170     3.8910 ho         1 ZMR       0.416000
     36 H91          1.8040    -1.1620     4.4830 h1         1 ZMR       0.019700
     37 H92          3.0790    -0.1500     3.7790 h1         1 ZMR       0.019700
     38 HO9          2.6790     0.2630     6.0590 ho         1 ZMR       0.487000
     39 HN11        -0.7830     0.5460    -5.7530 hn         1 ZMR       0.450250
     40 HN12        -0.3530    -0.9600    -5.1800 hn         1 ZMR       0.450250
     41 HN21         0.6240     1.9140    -4.9120 hn         1 ZMR       0.450250
     42 HN22        -0.0670     2.3360    -3.4030 hn         1 ZMR       0.450250
@<TRIPOS>BOND
     1     1     2 1   
     2     1     3 1   
     3     1     4 1   
     4     4     5 2   
     5     4    13 1   
     6     5     6 1   
     7     5    24 1   
     8     6     7 1   
     9     6    20 1   
    10     6    25 1   
    11     7     8 1   
    12     7    12 1   
    13     7    26 1   
    14     8     9 1   
    15     8    27 1   
    16     9    10 2   
    17     9    11 1   
    18    11    28 1   
    19    11    29 1   
    20    11    30 1   
    21    12    13 1   
    22    12    14 1   
    23    12    31 1   
    24    14    15 1   
    25    14    16 1   
    26    14    32 1   
    27    15    33 1   
    28    16    17 1   
    29    16    18 1   
    30    16    34 1   
    31    17    35 1   
    32    18    19 1   
    33    18    36 1   
    34    18    37 1   
    35    19    38 1   
    36    20    21 2   
    37    21    22 1   
    38    21    23 1   
    39    22    39 1   
    40    22    40 1   
    41    23    41 1   
    42    23    42 1   
@<TRIPOS>SUBSTRUCTURE
     1 ZMR         1 TEMP              0 ****  ****    0 ROOT
