@<TRIPOS>MOLECULE
ZMR
   42    42     1     0     0
SMALL
bcc


@<TRIPOS>ATOM
      1 C1          -3.5670    -0.1880     1.0580 c          1 ZMR       0.937800
      2 O1A         -3.5390    -0.5280     2.2520 o          1 ZMR      -0.803300
      3 O1B         -4.5700    -0.0100     0.3410 o          1 ZMR      -0.803300
      4 C2          -2.2150     0.0360     0.3900 ce         1 ZMR       0.032900
      5 C3          -2.0690     0.3740    -0.8910 c2         1 ZMR      -0.317200
      6 C4          -0.7390     0.5210    -1.5740 c6         1 ZMR       0.200700
      7 C5           0.3510    -0.0770    -0.6710 c6         1 ZMR       0.064700
      8 N5           1.6600     0.3480    -1.0970 ns         1 ZMR      -0.567900
      9 C10          2.5360    -0.4250    -1.7710 c          1 ZMR       0.676100
     10 O10          2.3850    -1.6240    -1.9450 o          1 ZMR      -0.588100
     11 C11          3.7200     0.3230    -2.3310 c3         1 ZMR      -0.183100
     12 C6           0.0960     0.3300     0.7830 c6         1 ZMR       0.105100
     13 O6          -1.1620    -0.1510     1.2230 os         1 ZMR      -0.299900
     14 C7           1.1310    -0.2290     1.7550 c3         1 ZMR       0.134100
     15 O7           1.1980    -1.6330     1.6830 oh         1 ZMR      -0.598800
     16 C8           0.8920     0.2470     3.2010 c3         1 ZMR       0.109100
     17 O8           0.7470     1.6480     3.2620 oh         1 ZMR      -0.563800
     18 C9           2.0040    -0.2390     4.1180 c3         1 ZMR       0.103400
     19 O9           1.6980     0.1370     5.4400 oh         1 ZMR      -0.582800
     20 NE          -0.7860    -0.1560    -2.8420 n2         1 ZMR      -0.692900
     21 CZ          -0.1730     0.3010    -3.8710 c2         1 ZMR       0.776100
     22 NH1         -0.1990    -0.4410    -5.0310 nv         1 ZMR      -0.940300
     23 NH2          0.6060     1.4260    -3.9550 nv         1 ZMR      -0.940300
     24 H3          -2.9590     0.5260    -1.4850 ha         1 ZMR       0.159000
     25 H4          -0.5330     1.6030    -1.6640 h1         1 ZMR      -0.008300
     26 H5           0.3090    -1.1630    -0.7560 h1         1 ZMR       0.120700
     27 HN5          1.8490     1.3380    -1.0620 hn         1 ZMR       0.287500
     28 H111         4.5930    -0.3240    -2.3750 hc         1 ZMR       0.050367
     29 H112         3.4780     0.6370    -3.3490 hc         1 ZMR       0.050367
     30 H113         3.9700     1.2170    -1.7620 hc         1 ZMR       0.050367
     31 H6           0.1020     1.4270     0.8450 h1         1 ZMR       0.041700
     32 H7           2.1130     0.1370     1.4330 h1         1 ZMR       0.051700
     33 HO7          0.3240    -1.9880     1.8790 ho         1 ZMR       0.430000
     34 H8          -0.0580    -0.1650     3.5560 h1         1 ZMR       0.124700
     35 HO8          1.5870     2.0560     3.0240 ho         1 ZMR       0.377000
     36 H91          2.1020    -1.3250     4.0190 h1         1 ZMR       0.019700
     37 H92          2.9580     0.1980     3.7820 h1         1 ZMR       0.019700
     38 HO9          2.3870    -0.2100     6.0130 ho         1 ZMR       0.388000
     39 HN11        -0.1280     0.0670    -5.8990 hn         1 ZMR       0.395050
     40 HN12        -0.9310    -1.1320    -5.0490 hn         1 ZMR       0.395050
     41 HN21         0.7170     1.8490    -4.8630 hn         1 ZMR       0.395050
     42 HN22         0.5180     2.1060    -3.2190 hn         1 ZMR       0.395050
@<TRIPOS>BOND
     1     1     2 1   
     2     1     3 1   
     3     1     4 1   
     4     4     5 2   
     5     4    13 1   
     6     5     6 1   
     7     5    24 1   
     8     6     7 1   
     9     6    20 1   
    10     6    25 1   
    11     7     8 1   
    12     7    12 1   
    13     7    26 1   
    14     8     9 1   
    15     8    27 1   
    16     9    10 2   
    17     9    11 1   
    18    11    28 1   
    19    11    29 1   
    20    11    30 1   
    21    12    13 1   
    22    12    14 1   
    23    12    31 1   
    24    14    15 1   
    25    14    16 1   
    26    14    32 1   
    27    15    33 1   
    28    16    17 1   
    29    16    18 1   
    30    16    34 1   
    31    17    35 1   
    32    18    19 1   
    33    18    36 1   
    34    18    37 1   
    35    19    38 1   
    36    20    21 2   
    37    21    22 1   
    38    21    23 1   
    39    22    39 1   
    40    22    40 1   
    41    23    41 1   
    42    23    42 1   
@<TRIPOS>SUBSTRUCTURE
     1 ZMR         1 TEMP              0 ****  ****    0 ROOT
