@<TRIPOS>MOLECULE
ZMT
   27    28     1     0     0
SMALL
No Charge or Current Charge


@<TRIPOS>ATOM
      1 N1         -18.4310    14.7720    -3.7000 nc         1 ZMT      -0.381000
      2 N3         -19.5770    16.3660    -4.7510 nd         1 ZMT      -0.209800
      3 C4         -18.3320    14.3540    -0.7040 c          1 ZMT       0.658700
      4 C5         -18.5170    14.4690     0.7550 cc         1 ZMT      -0.326600
      5 C6         -19.2740    15.4020     1.4350 cd         1 ZMT      -0.092000
      6 C7         -19.2300    15.2260     2.8430 cd         1 ZMT      -0.142000
      7 C8         -18.4490    14.1690     3.2410 cc         1 ZMT      -0.252000
      8 N          -19.7640    16.4700    -3.4110 na         1 ZMT      -0.124700
      9 C          -20.7000    19.7900    -1.6190 c3         1 ZMT      -0.091100
     10 O          -17.6370    13.4920    -1.2160 o          1 ZMT      -0.515100
     11 C1         -19.8080    18.7020    -2.2490 c3         1 ZMT      -0.099400
     12 C2         -20.6170    17.5150    -2.8180 c3         1 ZMT       0.082600
     13 C3         -19.0500    15.4790    -2.7780 cd         1 ZMT       0.524400
     14 N2         -18.7780    15.3450    -4.9020 nc         1 ZMT      -0.030000
     15 N4         -19.0140    15.3030    -1.4170 ns         1 ZMT      -0.482400
     16 S          -17.7310    13.3480     1.8580 ss         1 ZMT       0.355000
     17 H1         -19.8500    16.1970     0.9700 ha         1 ZMT       0.125000
     18 H2         -19.7640    15.8660     3.5400 ha         1 ZMT       0.139000
     19 H3         -18.2380    13.8090     4.2400 h4         1 ZMT       0.156000
     20 H4         -20.0850    20.6120    -1.2330 hc         1 ZMT       0.040367
     21 H5         -21.3940    20.2010    -2.3620 hc         1 ZMT       0.040367
     22 H6         -21.2850    19.3790    -0.7870 hc         1 ZMT       0.040367
     23 H7         -19.1020    18.3370    -1.4940 hc         1 ZMT       0.057200
     24 H8         -19.2120    19.1490    -3.0540 hc         1 ZMT       0.057200
     25 H9         -21.3070    17.8850    -3.5880 h1         1 ZMT       0.069200
     26 H10        -21.2240    17.0660    -2.0210 h1         1 ZMT       0.069200
     27 H11        -19.5460    15.9400    -0.8480 hn         1 ZMT       0.332500
@<TRIPOS>BOND
     1     1    13 2   
     2     1    14 1   
     3     2     8 1   
     4     2    14 2   
     5     3     4 1   
     6     3    10 2   
     7     3    15 1   
     8     4     5 2   
     9     4    16 1   
    10     5     6 1   
    11     5    17 1   
    12     6     7 2   
    13     6    18 1   
    14     7    16 1   
    15     7    19 1   
    16     8    12 1   
    17     8    13 1   
    18     9    11 1   
    19     9    20 1   
    20     9    21 1   
    21     9    22 1   
    22    11    12 1   
    23    11    23 1   
    24    11    24 1   
    25    12    25 1   
    26    12    26 1   
    27    13    15 1   
    28    15    27 1   
@<TRIPOS>SUBSTRUCTURE
     1 ZMT         1 TEMP              0 ****  ****    0 ROOT
