@<TRIPOS>MOLECULE
ZMT
   27    28     1     0     0
SMALL
abcg2


@<TRIPOS>ATOM
      1 N1         -18.3130    14.9060    -3.5360 nc         1 ZMT      -0.381000
      2 N3         -19.4330    16.4140    -4.5920 nd         1 ZMT      -0.209800
      3 C4         -18.5090    14.3550    -0.6120 c          1 ZMT       0.658700
      4 C5         -18.6250    14.4180     0.8490 cc         1 ZMT      -0.326600
      5 C6         -19.1700    15.3510     1.6920 cd         1 ZMT      -0.092000
      6 C7         -19.0380    14.9920     3.0520 cd         1 ZMT      -0.142000
      7 C8         -18.3950    13.7980     3.2130 cc         1 ZMT      -0.252000
      8 N          -19.7180    16.5180    -3.2960 na         1 ZMT      -0.124700
      9 C          -20.8210    19.9110    -1.9690 c3         1 ZMT      -0.091100
     10 O          -17.9760    13.4160    -1.1610 o          1 ZMT      -0.515100
     11 C1         -19.8640    18.8460    -2.4810 c3         1 ZMT      -0.099400
     12 C2         -20.6050    17.5560    -2.8020 c3         1 ZMT       0.082600
     13 C3         -19.0070    15.5830    -2.6500 cd         1 ZMT       0.524400
     14 N2         -18.6110    15.4540    -4.7150 nc         1 ZMT      -0.030000
     15 N4         -19.0450    15.4240    -1.2920 ns         1 ZMT      -0.482400
     16 S          -17.9500    13.1000     1.7250 ss         1 ZMT       0.355000
     17 H1         -19.6540    16.2640     1.3720 ha         1 ZMT       0.125000
     18 H2         -19.4010    15.5930     3.8730 ha         1 ZMT       0.139000
     19 H3         -18.1630    13.2960     4.1400 h4         1 ZMT       0.156000
     20 H4         -20.2820    20.8200    -1.7050 hc         1 ZMT       0.040367
     21 H5         -21.5630    20.1720    -2.7240 hc         1 ZMT       0.040367
     22 H6         -21.3530    19.5720    -1.0790 hc         1 ZMT       0.040367
     23 H7         -19.0890    18.6470    -1.7370 hc         1 ZMT       0.057200
     24 H8         -19.3550    19.1970    -3.3810 hc         1 ZMT       0.057200
     25 H9         -21.3580    17.7160    -3.5720 h1         1 ZMT       0.069200
     26 H10        -21.1290    17.1710    -1.9260 h1         1 ZMT       0.069200
     27 H11        -19.4880    16.1550    -0.7550 hn         1 ZMT       0.332500
@<TRIPOS>BOND
     1     1    13 2   
     2     1    14 1   
     3     2     8 1   
     4     2    14 2   
     5     3     4 1   
     6     3    10 2   
     7     3    15 1   
     8     4     5 2   
     9     4    16 1   
    10     5     6 1   
    11     5    17 1   
    12     6     7 2   
    13     6    18 1   
    14     7    16 1   
    15     7    19 1   
    16     8    12 1   
    17     8    13 1   
    18     9    11 1   
    19     9    20 1   
    20     9    21 1   
    21     9    22 1   
    22    11    12 1   
    23    11    23 1   
    24    11    24 1   
    25    12    25 1   
    26    12    26 1   
    27    13    15 1   
    28    15    27 1   
@<TRIPOS>SUBSTRUCTURE
     1 ZMT         1 TEMP              0 ****  ****    0 ROOT
