@<TRIPOS>MOLECULE
ZMW
   42    44     1     0     0
SMALL
No Charge or Current Charge


@<TRIPOS>ATOM
      1 N1         -16.0070    17.3530    25.9860 ns         1 ZMW      -0.513900
      2 N3         -19.5510    13.6020    25.9150 n          1 ZMW      -0.408800
      3 C4         -16.5530    20.3960    27.0560 ca         1 ZMW      -0.103000
      4 C5         -17.2480    21.6050    26.8840 ca         1 ZMW      -0.105500
      5 C6         -17.2600    22.2370    25.6290 ca         1 ZMW      -0.111000
      6 C7         -16.5760    21.6590    24.5460 ca         1 ZMW      -0.105500
      7 C8         -15.8810    20.4490    24.7180 ca         1 ZMW      -0.103000
      8 C10        -18.6090    14.0930    24.8770 c6         1 ZMW       0.089500
      9 C13        -20.5570    12.6670    25.5500 c          1 ZMW       0.544600
     10 C15        -22.6180    11.4180    26.3730 cc         1 ZMW      -0.104000
     11 C17        -22.9440    12.4830    28.2980 cd         1 ZMW       0.146900
     12 C1         -16.5730    16.6330    27.0090 c          1 ZMW       0.648100
     13 C11        -18.8950    13.5700    27.2510 c6         1 ZMW       0.089500
     14 C12        -18.2780    14.9250    27.6660 c6         1 ZMW       0.088500
     15 C14        -21.6360    12.3580    26.5520 cd         1 ZMW       0.062500
     16 C16        -23.4530    11.4930    27.5040 cc         1 ZMW      -0.195000
     17 C2         -15.1160    18.5000    26.1620 c3         1 ZMW       0.158300
     18 C3         -15.8640    19.8120    25.9740 ca         1 ZMW      -0.102300
     19 C9         -17.9300    15.4440    25.2210 c6         1 ZMW       0.088500
     20 N2         -17.4410    15.5900    26.6270 n          1 ZMW      -0.429800
     21 O1         -16.3330    16.8810    28.1810 o          1 ZMW      -0.634100
     22 O2         -20.5570    12.1610    24.4320 o          1 ZMW      -0.595100
     23 O3         -21.8280    13.0570    27.7310 os         1 ZMW      -0.248000
     24 H1         -16.2610    17.0860    25.0460 hn         1 ZMW       0.306500
     25 H4         -16.5510    19.9100    28.0290 ha         1 ZMW       0.107500
     26 H5         -17.7790    22.0510    27.7230 ha         1 ZMW       0.111500
     27 H6         -17.7980    23.1730    25.4960 ha         1 ZMW       0.113000
     28 H7         -16.5860    22.1470    23.5740 ha         1 ZMW       0.111500
     29 H8         -15.3560    20.0070    23.8730 ha         1 ZMW       0.107500
     30 H12        -19.1310    14.2030    23.9160 h1         1 ZMW       0.065950
     31 H11        -17.8270    13.3330    24.7330 h1         1 ZMW       0.065950
     32 H19        -23.2780    12.8690    29.2520 h4         1 ZMW       0.056100
     33 H13        -19.5640    13.2300    28.0470 h1         1 ZMW       0.065950
     34 H14        -18.0830    12.8300    27.2080 h1         1 ZMW       0.065950
     35 H16        -19.0940    15.6100    27.9360 h1         1 ZMW       0.057450
     36 H15        -17.6810    14.7640    28.5750 h1         1 ZMW       0.057450
     37 H18        -24.3310    10.8840    27.6950 ha         1 ZMW       0.147000
     38 H2         -14.6560    18.4720    27.1590 h1         1 ZMW       0.065700
     39 H3         -14.3040    18.4280    25.4260 h1         1 ZMW       0.065700
     40 H9         -18.6540    16.2490    25.0320 h1         1 ZMW       0.057450
     41 H10        -17.1000    15.5810    24.5150 h1         1 ZMW       0.057450
     42 H17        -22.7390    10.7440    25.5300 ha         1 ZMW       0.157000
@<TRIPOS>BOND
     1     1    12 1   
     2     1    17 1   
     3     1    24 1   
     4     2     8 1   
     5     2     9 1   
     6     2    13 1   
     7     3     4 ar  
     8     3    18 ar  
     9     3    25 1   
    10     4     5 ar  
    11     4    26 1   
    12     5     6 ar  
    13     5    27 1   
    14     6     7 ar  
    15     6    28 1   
    16     7    18 ar  
    17     7    29 1   
    18     8    19 1   
    19     8    30 1   
    20     8    31 1   
    21     9    15 1   
    22     9    22 2   
    23    10    15 2   
    24    10    16 1   
    25    10    42 1   
    26    11    16 2   
    27    11    23 1   
    28    11    32 1   
    29    12    20 1   
    30    12    21 2   
    31    13    14 1   
    32    13    33 1   
    33    13    34 1   
    34    14    20 1   
    35    14    35 1   
    36    14    36 1   
    37    15    23 1   
    38    16    37 1   
    39    17    18 1   
    40    17    38 1   
    41    17    39 1   
    42    19    20 1   
    43    19    40 1   
    44    19    41 1   
@<TRIPOS>SUBSTRUCTURE
     1 ZMW         1 TEMP              0 ****  ****    0 ROOT
