@<TRIPOS>MOLECULE
ZMW
   42    44     1     0     0
SMALL
abcg2


@<TRIPOS>ATOM
      1 N1         -16.0940    17.2500    25.8470 ns         1 ZMW      -0.513900
      2 N3         -19.2100    13.3250    25.9570 n          1 ZMW      -0.408800
      3 C4         -15.2640    20.8620    26.6020 ca         1 ZMW      -0.103000
      4 C5         -15.8670    22.1130    26.6360 ca         1 ZMW      -0.105500
      5 C6         -17.1930    22.2610    26.2350 ca         1 ZMW      -0.111000
      6 C7         -17.9040    21.1470    25.8020 ca         1 ZMW      -0.105500
      7 C8         -17.2940    19.8940    25.7680 ca         1 ZMW      -0.103000
      8 C10        -18.0560    13.6290    25.1230 c6         1 ZMW       0.089500
      9 C13        -20.1570    12.4630    25.5120 c          1 ZMW       0.544600
     10 C15        -22.2790    11.2600    26.3140 cc         1 ZMW      -0.104000
     11 C17        -23.1130    12.9390    27.5190 cd         1 ZMW       0.146900
     12 C1         -16.9070    16.7260    26.8110 c          1 ZMW       0.648100
     13 C11        -19.0520    13.8170    27.3250 c6         1 ZMW       0.089500
     14 C12        -18.8290    15.3200    27.3170 c6         1 ZMW       0.088500
     15 C14        -21.4130    12.3130    26.2710 cd         1 ZMW       0.062500
     16 C16        -23.3750    11.6630    27.1320 cc         1 ZMW      -0.195000
     17 C2         -15.2580    18.3980    26.1280 c3         1 ZMW       0.158300
     18 C3         -15.9700    19.7390    26.1660 ca         1 ZMW      -0.102300
     19 C9         -17.8040    15.1350    25.0960 c6         1 ZMW       0.088500
     20 N2         -17.7070    15.6690    26.4500 n          1 ZMW      -0.429800
     21 O1         -16.8910    17.1640    27.9680 o          1 ZMW      -0.634100
     22 O2         -20.0230    11.8080    24.4720 o          1 ZMW      -0.595100
     23 O3         -21.9230    13.3520    27.0070 os         1 ZMW      -0.248000
     24 H1         -16.2840    17.0580    24.8790 hn         1 ZMW       0.306500
     25 H4         -14.2330    20.7530    26.9200 ha         1 ZMW       0.107500
     26 H5         -15.3050    22.9730    26.9800 ha         1 ZMW       0.111500
     27 H6         -17.6670    23.2340    26.2630 ha         1 ZMW       0.113000
     28 H7         -18.9360    21.2490    25.4910 ha         1 ZMW       0.111500
     29 H8         -17.8590    19.0340    25.4340 ha         1 ZMW       0.107500
     30 H12        -18.2420    13.2680    24.1160 h1         1 ZMW       0.065950
     31 H11        -17.1740    13.1170    25.5220 h1         1 ZMW       0.065950
     32 H19        -23.6430    13.6570    28.1200 h4         1 ZMW       0.056100
     33 H13        -19.9190    13.5730    27.9250 h1         1 ZMW       0.065950
     34 H14        -18.1770    13.3220    27.7610 h1         1 ZMW       0.065950
     35 H16        -19.7400    15.8180    26.9640 h1         1 ZMW       0.057450
     36 H15        -18.6080    15.6670    28.3210 h1         1 ZMW       0.057450
     37 H18        -24.2450    11.0820    27.3910 ha         1 ZMW       0.147000
     38 H2         -14.7530    18.2380    27.0800 h1         1 ZMW       0.065700
     39 H3         -14.4840    18.4280    25.3580 h1         1 ZMW       0.065700
     40 H9         -18.6120    15.6320    24.5460 h1         1 ZMW       0.057450
     41 H10        -16.8720    15.2920    24.5590 h1         1 ZMW       0.057450
     42 H17        -22.1440    10.3140    25.8180 ha         1 ZMW       0.157000
@<TRIPOS>BOND
     1     1    12 1   
     2     1    17 1   
     3     1    24 1   
     4     2     8 1   
     5     2     9 1   
     6     2    13 1   
     7     3     4 ar  
     8     3    18 ar  
     9     3    25 1   
    10     4     5 ar  
    11     4    26 1   
    12     5     6 ar  
    13     5    27 1   
    14     6     7 ar  
    15     6    28 1   
    16     7    18 ar  
    17     7    29 1   
    18     8    19 1   
    19     8    30 1   
    20     8    31 1   
    21     9    15 1   
    22     9    22 2   
    23    10    15 2   
    24    10    16 1   
    25    10    42 1   
    26    11    16 2   
    27    11    23 1   
    28    11    32 1   
    29    12    20 1   
    30    12    21 2   
    31    13    14 1   
    32    13    33 1   
    33    13    34 1   
    34    14    20 1   
    35    14    35 1   
    36    14    36 1   
    37    15    23 1   
    38    16    37 1   
    39    17    18 1   
    40    17    38 1   
    41    17    39 1   
    42    19    20 1   
    43    19    40 1   
    44    19    41 1   
@<TRIPOS>SUBSTRUCTURE
     1 ZMW         1 TEMP              0 ****  ****    0 ROOT
