@<TRIPOS>MOLECULE
ZMX
   59    63     1     0     0
SMALL
No Charge or Current Charge


@<TRIPOS>ATOM
      1 C10          2.8860   -32.8910   -18.5700 ca         1 ZMX      -0.106000
      2 C13          3.7360   -33.0520   -14.8980 cc         1 ZMX       0.493500
      3 C15          3.1100   -33.4850   -12.9050 cd         1 ZMX       0.236900
      4 C20          5.8420   -33.3750    -9.4150 ca         1 ZMX      -0.119500
      5 C21          7.2270   -33.4300    -9.6510 ca         1 ZMX      -0.066300
      6 C22          8.2150   -33.3600    -8.4970 c3         1 ZMX      -0.049800
      7 C24          6.7930   -33.5650   -12.0460 ca         1 ZMX      -0.082500
      8 C28          8.6340   -29.7230   -11.0740 ca         1 ZMX       0.050600
      9 C02          5.1800   -29.7860   -12.3980 cc         1 ZMX       0.106800
     10 C03          5.9030   -30.1830   -13.5010 cd         1 ZMX      -0.145600
     11 C07          4.7430   -31.6840   -16.8040 ca         1 ZMX      -0.118600
     12 C08          4.7750   -31.4130   -18.1910 ca         1 ZMX      -0.084000
     13 C09          3.8550   -32.0100   -19.0670 ca         1 ZMX      -0.095000
     14 C11          2.8570   -33.1990   -17.2010 ca         1 ZMX      -0.073000
     15 C12          3.7970   -32.6390   -16.3090 ca         1 ZMX      -0.107500
     16 C16          4.4800   -33.4690   -12.9590 cc         1 ZMX       0.167500
     17 C18          5.4030   -33.5020   -11.8180 ca         1 ZMX      -0.134500
     18 C19          4.9350   -33.4110   -10.4890 ca         1 ZMX      -0.082500
     19 C23          7.6960   -33.5350   -10.9700 ca         1 ZMX      -0.119500
     20 C25          7.3360   -30.2990   -13.1830 c          1 ZMX       0.568200
     21 C29          8.7400   -28.6460   -10.1690 ca         1 ZMX      -0.109500
     22 C30          9.9060   -28.4650    -9.4040 ca         1 ZMX      -0.102000
     23 C31         10.9800   -29.3600    -9.5390 ca         1 ZMX      -0.115000
     24 C32         10.8880   -30.4310   -10.4420 ca         1 ZMX      -0.102000
     25 C33          9.7230   -30.6090   -11.2090 ca         1 ZMX      -0.109500
     26 N04          5.2380   -30.5380   -14.6880 ns         1 ZMX      -0.392100
     27 N14          2.6330   -33.2240   -14.1780 nd         1 ZMX      -0.672000
     28 N27          7.4290   -29.9110   -11.8440 n          1 ZMX      -0.180400
     29 N34          6.0930   -29.6350   -11.3460 na         1 ZMX      -0.385400
     30 O06          6.8720   -30.7160   -16.2970 o          1 ZMX      -0.556100
     31 O17          4.9040   -33.2560   -14.2240 os         1 ZMX      -0.243000
     32 O26          8.2680   -30.6450   -13.8980 o          1 ZMX      -0.513000
     33 H101         2.1650   -33.3450   -19.2450 ha         1 ZMX       0.121000
     34 H151         2.4550   -33.6170   -12.0530 h4         1 ZMX       0.049100
     35 H201         5.4630   -33.2920    -8.3990 ha         1 ZMX       0.116500
     36 H223         8.6880   -32.3710    -8.4510 hc         1 ZMX       0.045033
     37 H221         7.7260   -33.5420    -7.5320 hc         1 ZMX       0.045033
     38 H222         9.0090   -34.1060    -8.6110 hc         1 ZMX       0.045033
     39 H241         7.1820   -33.6280   -13.0600 ha         1 ZMX       0.131500
     40 H011         3.4410   -28.9780   -11.4080 hc         1 ZMX       0.061700
     41 H012         3.2320   -29.2250   -13.1450 hc         1 ZMX       0.061700
     42 H013         3.2240   -30.6180   -12.0430 hc         1 ZMX       0.061700
     43 H081         5.5030   -30.7100   -18.5920 ha         1 ZMX       0.134000
     44 H091         3.8850   -31.7770   -20.1290 ha         1 ZMX       0.122000
     45 H111         2.1120   -33.9040   -16.8340 ha         1 ZMX       0.139000
     46 H191         3.8700   -33.3480   -10.2760 ha         1 ZMX       0.131500
     47 H231         8.7640   -33.5840   -11.1650 ha         1 ZMX       0.116500
     48 H291         7.9220   -27.9370   -10.0660 ha         1 ZMX       0.130000
     49 H301         9.9770   -27.6310    -8.7100 ha         1 ZMX       0.115500
     50 H311        11.8820   -29.2220    -8.9470 ha         1 ZMX       0.114000
     51 H321        11.7200   -31.1250   -10.5490 ha         1 ZMX       0.115500
     52 H331         9.6670   -31.4480   -11.8960 ha         1 ZMX       0.130000
     53 H352         5.8230   -28.9390    -9.3590 h1         1 ZMX       0.055367
     54 H353         4.8820   -30.3970    -9.7740 h1         1 ZMX       0.055367
     55 H351         6.6330   -30.5290    -9.4850 h1         1 ZMX       0.055367
     56 H041         4.2290   -30.6070   -14.6490 hn         1 ZMX       0.328500
     57 C05          5.7300   -30.9390   -15.9220 c          1 ZMX       0.624700
     58 C35          5.8460   -29.8900    -9.9050 c3         1 ZMX       0.186100
     59 C01          3.6880   -29.6460   -12.2410 c3         1 ZMX      -0.052900
@<TRIPOS>BOND
     1     1    13 ar  
     2     1    14 ar  
     3     1    33 1   
     4     2    15 1   
     5     2    27 2   
     6     2    31 1   
     7     3    16 2   
     8     3    27 1   
     9     3    34 1   
    10     4     5 ar  
    11     4    18 ar  
    12     4    35 1   
    13     5     6 1   
    14     5    19 ar  
    15     6    36 1   
    16     6    37 1   
    17     6    38 1   
    18     7    17 ar  
    19     7    19 ar  
    20     7    39 1   
    21     8    21 ar  
    22     8    25 ar  
    23     8    28 1   
    24     9    10 2   
    25     9    29 1   
    26     9    59 1   
    27    10    20 1   
    28    10    26 1   
    29    11    12 ar  
    30    11    15 ar  
    31    11    57 1   
    32    12    13 ar  
    33    12    43 1   
    34    13    44 1   
    35    14    15 ar  
    36    14    45 1   
    37    16    17 1   
    38    16    31 1   
    39    17    18 ar  
    40    18    46 1   
    41    19    47 1   
    42    20    28 1   
    43    20    32 2   
    44    21    22 ar  
    45    21    48 1   
    46    22    23 ar  
    47    22    49 1   
    48    23    24 ar  
    49    23    50 1   
    50    24    25 ar  
    51    24    51 1   
    52    25    52 1   
    53    26    56 1   
    54    26    57 1   
    55    28    29 1   
    56    29    58 1   
    57    30    57 2   
    58    40    59 1   
    59    41    59 1   
    60    42    59 1   
    61    53    58 1   
    62    54    58 1   
    63    55    58 1   
@<TRIPOS>SUBSTRUCTURE
     1 ZMX         1 TEMP              0 ****  ****    0 ROOT
