@<TRIPOS>MOLECULE
ZMX
   59    63     1     0     0
SMALL
abcg2


@<TRIPOS>ATOM
      1 C10          3.2270   -32.1720   -18.5180 ca         1 ZMX      -0.106000
      2 C13          3.3320   -33.1780   -14.9310 cc         1 ZMX       0.493500
      3 C15          2.3370   -34.1370   -13.3300 cd         1 ZMX       0.236900
      4 C20          4.3780   -34.5650    -9.3170 ca         1 ZMX      -0.119500
      5 C21          5.7590   -34.3890    -9.2640 ca         1 ZMX      -0.066300
      6 C22          6.5190   -34.5660    -7.9840 c3         1 ZMX      -0.049800
      7 C24          5.7330   -33.9040   -11.6380 ca         1 ZMX      -0.082500
      8 C28          9.2390   -28.8350   -11.6770 ca         1 ZMX       0.050600
      9 C02          6.0050   -30.1930   -11.9960 cc         1 ZMX       0.106800
     10 C03          6.3840   -30.2330   -13.3010 cd         1 ZMX      -0.145600
     11 C07          4.9120   -31.8230   -16.3270 ca         1 ZMX      -0.118600
     12 C08          5.2390   -31.2790   -17.5630 ca         1 ZMX      -0.084000
     13 C09          4.4040   -31.4490   -18.6570 ca         1 ZMX      -0.095000
     14 C11          2.8950   -32.7240   -17.2940 ca         1 ZMX      -0.073000
     15 C12          3.7310   -32.5630   -16.1880 ca         1 ZMX      -0.107500
     16 C16          3.6020   -33.8740   -12.9070 cc         1 ZMX       0.167500
     17 C18          4.3470   -34.0750   -11.6810 ca         1 ZMX      -0.134500
     18 C19          3.6780   -34.4100   -10.5020 ca         1 ZMX      -0.082500
     19 C23          6.4190   -34.0590   -10.4460 ca         1 ZMX      -0.119500
     20 C25          7.7610   -29.8160   -13.3920 c          1 ZMX       0.568200
     21 C29          9.0490   -27.6670   -10.9450 ca         1 ZMX      -0.109500
     22 C30         10.1480   -26.9060   -10.5720 ca         1 ZMX      -0.102000
     23 C31         11.4280   -27.2910   -10.9460 ca         1 ZMX      -0.115000
     24 C32         11.6080   -28.4530   -11.6850 ca         1 ZMX      -0.102000
     25 C33         10.5190   -29.2330   -12.0430 ca         1 ZMX      -0.109500
     26 N04          5.5920   -30.5610   -14.4040 ns         1 ZMX      -0.392100
     27 N14          2.1860   -33.6870   -14.6160 nd         1 ZMX      -0.672000
     28 N27          8.1420   -29.6280   -12.0710 n          1 ZMX      -0.180400
     29 N34          7.0420   -29.7400   -11.2340 na         1 ZMX      -0.385400
     30 O06          6.8660   -32.3160   -15.0610 o          1 ZMX      -0.556100
     31 O17          4.2290   -33.2660   -13.9430 os         1 ZMX      -0.243000
     32 O26          8.4700   -29.6100   -14.3640 o          1 ZMX      -0.513000
     33 H101         2.5690   -32.3110   -19.3650 ha         1 ZMX       0.121000
     34 H151         1.5360   -34.6210   -12.7940 h4         1 ZMX       0.049100
     35 H201         3.8360   -34.8170    -8.4140 ha         1 ZMX       0.116500
     36 H223         7.2960   -33.8090    -7.8750 hc         1 ZMX       0.045033
     37 H221         5.8620   -34.5050    -7.1170 hc         1 ZMX       0.045033
     38 H222         7.0120   -35.5400    -7.9540 hc         1 ZMX       0.045033
     39 H241         6.2850   -33.6420   -12.5310 ha         1 ZMX       0.131500
     40 H011         4.3110   -29.7050   -10.8000 hc         1 ZMX       0.061700
     41 H012         3.9730   -30.7650   -12.1710 hc         1 ZMX       0.061700
     42 H013         4.7700   -31.4060   -10.7390 hc         1 ZMX       0.061700
     43 H081         6.1530   -30.7080   -17.6690 ha         1 ZMX       0.134000
     44 H091         4.6720   -31.0170   -19.6120 ha         1 ZMX       0.122000
     45 H111         1.9820   -33.2950   -17.1900 ha         1 ZMX       0.139000
     46 H191         2.6020   -34.5330   -10.5020 ha         1 ZMX       0.131500
     47 H231         7.4930   -33.9140   -10.4350 ha         1 ZMX       0.116500
     48 H291         8.0500   -27.3540   -10.6680 ha         1 ZMX       0.130000
     49 H301         9.9980   -26.0030    -9.9950 ha         1 ZMX       0.115500
     50 H311        12.2810   -26.6920   -10.6590 ha         1 ZMX       0.114000
     51 H321        12.6040   -28.7640   -11.9750 ha         1 ZMX       0.115500
     52 H331        10.6640   -30.1530   -12.5930 ha         1 ZMX       0.130000
     53 H352         8.0290   -29.6740    -9.3920 h1         1 ZMX       0.055367
     54 H353         6.3650   -30.2240    -9.3360 h1         1 ZMX       0.055367
     55 H351         7.6290   -31.3150    -9.9460 h1         1 ZMX       0.055367
     56 H041         4.7720   -30.0080   -14.6060 hn         1 ZMX       0.328500
     57 C05          5.8850   -31.6120   -15.2000 c          1 ZMX       0.624700
     58 C35          7.2880   -30.2790    -9.9070 c3         1 ZMX       0.186100
     59 C01          4.6960   -30.5360   -11.3920 c3         1 ZMX      -0.052900
@<TRIPOS>BOND
     1     1    13 ar  
     2     1    14 ar  
     3     1    33 1   
     4     2    15 1   
     5     2    27 2   
     6     2    31 1   
     7     3    16 2   
     8     3    27 1   
     9     3    34 1   
    10     4     5 ar  
    11     4    18 ar  
    12     4    35 1   
    13     5     6 1   
    14     5    19 ar  
    15     6    36 1   
    16     6    37 1   
    17     6    38 1   
    18     7    17 ar  
    19     7    19 ar  
    20     7    39 1   
    21     8    21 ar  
    22     8    25 ar  
    23     8    28 1   
    24     9    10 2   
    25     9    29 1   
    26     9    59 1   
    27    10    20 1   
    28    10    26 1   
    29    11    12 ar  
    30    11    15 ar  
    31    11    57 1   
    32    12    13 ar  
    33    12    43 1   
    34    13    44 1   
    35    14    15 ar  
    36    14    45 1   
    37    16    17 1   
    38    16    31 1   
    39    17    18 ar  
    40    18    46 1   
    41    19    47 1   
    42    20    28 1   
    43    20    32 2   
    44    21    22 ar  
    45    21    48 1   
    46    22    23 ar  
    47    22    49 1   
    48    23    24 ar  
    49    23    50 1   
    50    24    25 ar  
    51    24    51 1   
    52    25    52 1   
    53    26    56 1   
    54    26    57 1   
    55    28    29 1   
    56    29    58 1   
    57    30    57 2   
    58    40    59 1   
    59    41    59 1   
    60    42    59 1   
    61    53    58 1   
    62    54    58 1   
    63    55    58 1   
@<TRIPOS>SUBSTRUCTURE
     1 ZMX         1 TEMP              0 ****  ****    0 ROOT
