@<TRIPOS>MOLECULE
ZMY
   60    65     1     0     0
SMALL
No Charge or Current Charge


@<TRIPOS>ATOM
      1 C19         11.9930    27.0840    19.4960 ca         1 ZMY       0.112100
      2 C1          20.5480    23.5410    27.5670 c3         1 ZMY       0.049000
      3 C14         12.6800    24.3780    22.1110 c3         1 ZMY       0.294100
      4 C15         12.3640    25.0590    20.7850 ca         1 ZMY      -0.107300
      5 C16         12.2690    26.4640    20.6940 ca         1 ZMY      -0.115300
      6 C13         14.7200    24.1490    23.5780 cc         1 ZMY       0.827400
      7 C12         14.5720    23.0600    25.6480 cd         1 ZMY       0.405900
      8 C11         15.8880    23.3920    25.9780 cc         1 ZMY      -0.133000
      9 C9          15.3390    22.8910    28.3850 ca         1 ZMY       0.338900
     10 C10         16.2750    22.8830    27.3150 ca         1 ZMY      -0.014000
     11 C7          16.7950    21.8430    29.8630 ca         1 ZMY       0.232300
     12 C6          17.7860    21.7880    28.8670 ca         1 ZMY      -0.105000
     13 C5          17.5330    22.3160    27.5840 ca         1 ZMY      -0.073300
     14 C4          18.6160    22.2720    26.5430 c3         1 ZMY       0.145300
     15 C3          23.0520    23.1570    28.0060 c3         1 ZMY      -0.148100
     16 C2          21.8720    22.9160    27.0460 c3         1 ZMY       0.168000
     17 O1          11.9550    28.4490    19.5670 os         1 ZMY      -0.325100
     18 C17         12.4660    27.4820    21.7760 c5         1 ZMY      -0.060100
     19 C18         11.9470    28.7500    21.0030 c5         1 ZMY       0.146600
     20 F5          12.2440    22.9580    19.6280 f          1 ZMY      -0.190000
     21 C22         12.1630    24.3080    19.6020 ca         1 ZMY       0.136000
     22 C21         11.8860    24.9500    18.3770 ca         1 ZMY      -0.115000
     23 C20         11.8030    26.3550    18.3160 ca         1 ZMY      -0.101000
     24 N3          14.1060    24.5390    22.4270 nu         1 ZMY      -0.930100
     25 N2          13.9810    23.4730    24.4460 nd         1 ZMY      -0.791000
     26 N4          16.0750    24.3310    23.7800 na         1 ZMY      -0.203300
     27 C25         16.7880    25.2350    23.0600 cc         1 ZMY       0.341700
     28 N5          17.9450    25.4050    23.6750 nd         1 ZMY      -0.481300
     29 C24         17.9400    24.6280    24.8470 cd         1 ZMY      -0.060600
     30 C           19.1310    24.6250    25.7850 c          1 ZMY       0.624200
     31 O           19.9280    25.5570    25.7620 o          1 ZMY      -0.512000
     32 C23         16.6720    24.0380    24.9550 cc         1 ZMY      -0.038000
     33 N1          15.5810    22.3960    29.6200 nb         1 ZMY      -0.619000
     34 F4          16.0480    21.4190    32.1300 f          1 ZMY      -0.105667
     35 F3          17.3540    19.9450    31.2130 f          1 ZMY      -0.105667
     36 F2          18.1530    21.8670    31.8360 f          1 ZMY      -0.105667
     37 N           19.3970    23.5100    26.6130 n          1 ZMY      -0.402800
     38 F           22.1820    23.4310    25.8330 f          1 ZMY      -0.118500
     39 F1          21.7190    21.5830    26.8770 f          1 ZMY      -0.118500
     40 H1          20.7450    24.5790    27.8650 h1         1 ZMY       0.075700
     41 H           20.2610    23.0190    28.4870 h1         1 ZMY       0.075700
     42 H12         12.0610    24.8260    22.9010 h1         1 ZMY       0.073700
     43 H11         12.4160    23.3120    22.0650 h1         1 ZMY       0.073700
     44 H9          13.9190    22.4910    26.2970 h4         1 ZMY       0.028100
     45 H8          14.3520    23.3350    28.2600 h4         1 ZMY       0.032100
     46 H7          18.7470    21.3350    29.0960 ha         1 ZMY       0.142000
     47 H5          18.2070    22.1140    25.5390 h1         1 ZMY       0.077700
     48 H6          19.2670    21.4120    26.7420 h1         1 ZMY       0.077700
     49 H4          22.8450    22.7220    28.9910 hc         1 ZMY       0.064033
     50 H3          23.9680    22.6980    27.6140 hc         1 ZMY       0.064033
     51 H2          23.2360    24.2300    28.1340 hc         1 ZMY       0.064033
     52 H13         11.8800    27.2830    22.6810 hc         1 ZMY       0.075200
     53 H14         13.5180    27.5820    22.0640 hc         1 ZMY       0.075200
     54 H15         12.5530    29.6440    21.2000 h1         1 ZMY       0.060700
     55 H16         10.9110    28.9730    21.2930 h1         1 ZMY       0.060700
     56 H18         11.7400    24.3560    17.4770 ha         1 ZMY       0.138000
     57 H17         11.5950    26.8650    17.3790 ha         1 ZMY       0.139000
     58 H10         14.7350    24.6840    21.6460 hn         1 ZMY       0.514000
     59 H19         16.4500    25.7180    22.1520 h5         1 ZMY       0.072800
     60 C8          17.0810    21.2690    31.2660 c3         1 ZMY       0.269700
@<TRIPOS>BOND
     1     1     5 ar  
     2     1    17 1   
     3     1    23 ar  
     4     2    16 1   
     5     2    37 1   
     6     2    40 1   
     7     2    41 1   
     8     3     4 1   
     9     3    24 1   
    10     3    42 1   
    11     3    43 1   
    12     4     5 ar  
    13     4    21 ar  
    14     5    18 1   
    15     6    24 1   
    16     6    25 2   
    17     6    26 1   
    18     7     8 2   
    19     7    25 1   
    20     7    44 1   
    21     8    10 1   
    22     8    32 1   
    23     9    10 ar  
    24     9    33 ar  
    25     9    45 1   
    26    10    13 ar  
    27    11    12 ar  
    28    11    33 ar  
    29    11    60 1   
    30    12    13 ar  
    31    12    46 1   
    32    13    14 1   
    33    14    37 1   
    34    14    47 1   
    35    14    48 1   
    36    15    16 1   
    37    15    49 1   
    38    15    50 1   
    39    15    51 1   
    40    16    38 1   
    41    16    39 1   
    42    17    19 1   
    43    18    19 1   
    44    18    52 1   
    45    18    53 1   
    46    19    54 1   
    47    19    55 1   
    48    20    21 1   
    49    21    22 ar  
    50    22    23 ar  
    51    22    56 1   
    52    23    57 1   
    53    24    58 1   
    54    26    27 1   
    55    26    32 1   
    56    27    28 2   
    57    27    59 1   
    58    28    29 1   
    59    29    30 1   
    60    29    32 2   
    61    30    31 2   
    62    30    37 1   
    63    34    60 1   
    64    35    60 1   
    65    36    60 1   
@<TRIPOS>SUBSTRUCTURE
     1 ZMY         1 TEMP              0 ****  ****    0 ROOT
