@<TRIPOS>MOLECULE
ZMY
   60    65     1     0     0
SMALL
abcg2


@<TRIPOS>ATOM
      1 C19         11.3100    26.8200    21.5360 ca         1 ZMY       0.112100
      2 C1          20.6220    23.2710    27.0960 c3         1 ZMY       0.049000
      3 C14         13.3810    23.6510    21.0720 c3         1 ZMY       0.294100
      4 C15         12.8000    25.0300    20.9020 ca         1 ZMY      -0.107300
      5 C16         11.8140    25.5380    21.7300 ca         1 ZMY      -0.115300
      6 C13         15.1910    23.7700    22.7080 cc         1 ZMY       0.827400
      7 C12         14.8140    23.9130    24.9530 cd         1 ZMY       0.405900
      8 C11         16.1330    23.8870    25.3200 cc         1 ZMY      -0.133000
      9 C9          15.7500    24.7890    27.5940 ca         1 ZMY       0.338900
     10 C10         16.4820    23.9450    26.7460 ca         1 ZMY      -0.014000
     11 C7          16.7900    24.0270    29.4560 ca         1 ZMY       0.232300
     12 C6          17.5910    23.1740    28.7230 ca         1 ZMY      -0.105000
     13 C5          17.4570    23.1430    27.3400 ca         1 ZMY      -0.073300
     14 C4          18.4080    22.3040    26.5340 c3         1 ZMY       0.145300
     15 C3          22.8160    22.4130    28.0080 c3         1 ZMY      -0.148100
     16 C2          21.7020    22.2040    27.0170 c3         1 ZMY       0.168000
     17 O1          10.3660    27.1610    22.4360 os         1 ZMY      -0.325100
     18 C17         11.1330    24.9540    22.9340 c5         1 ZMY      -0.060100
     19 C18         10.0150    25.9790    23.1770 c5         1 ZMY       0.146600
     20 F5          14.1700    25.3880    19.0260 f          1 ZMY      -0.190000
     21 C22         13.2320    25.8630    19.8720 ca         1 ZMY       0.136000
     22 C21         12.7430    27.1360    19.6710 ca         1 ZMY      -0.115000
     23 C20         11.7580    27.6390    20.5180 ca         1 ZMY      -0.101000
     24 N3          14.7830    23.6600    21.4440 nu         1 ZMY      -0.930100
     25 N2          14.3450    23.8570    23.6910 nd         1 ZMY      -0.791000
     26 N4          16.5490    23.7620    22.9570 na         1 ZMY      -0.203300
     27 C25         17.6070    23.7240    22.0860 cc         1 ZMY       0.341700
     28 N5          18.7300    23.7380    22.7250 nd         1 ZMY      -0.481300
     29 C24         18.4420    23.7650    24.0610 cd         1 ZMY      -0.060600
     30 C           19.5960    23.8330    24.9860 c          1 ZMY       0.624200
     31 O           20.5650    24.5060    24.6780 o          1 ZMY      -0.512000
     32 C23         17.0710    23.7930    24.2470 cc         1 ZMY      -0.038000
     33 N1          15.8940    24.8310    28.9050 nb         1 ZMY      -0.619000
     34 F4          16.9130    25.3510    31.3930 f          1 ZMY      -0.105667
     35 F3          15.8170    23.5080    31.5330 f          1 ZMY      -0.105667
     36 F2          17.9640    23.4730    31.4220 f          1 ZMY      -0.105667
     37 N           19.5570    23.1040    26.1330 n          1 ZMY      -0.402800
     38 F           22.2080    22.1510    25.7490 f          1 ZMY      -0.118500
     39 F1          21.1360    20.9680    27.2160 f          1 ZMY      -0.118500
     40 H1          21.0890    24.2460    26.9650 h1         1 ZMY       0.075700
     41 H           20.2100    23.2620    28.1070 h1         1 ZMY       0.075700
     42 H12         12.8190    23.0940    21.8180 h1         1 ZMY       0.073700
     43 H11         13.3090    23.0900    20.1400 h1         1 ZMY       0.073700
     44 H9          14.0470    23.9560    25.7170 h4         1 ZMY       0.028100
     45 H8          15.0210    25.4710    27.1720 h4         1 ZMY       0.032100
     46 H7          18.3080    22.5230    29.2060 ha         1 ZMY       0.142000
     47 H5          17.9280    21.8720    25.6580 h1         1 ZMY       0.077700
     48 H6          18.7570    21.4670    27.1340 h1         1 ZMY       0.077700
     49 H4          22.4240    22.4230    29.0240 hc         1 ZMY       0.064033
     50 H3          23.5560    21.6180    27.9280 hc         1 ZMY       0.064033
     51 H2          23.3090    23.3670    27.8260 hc         1 ZMY       0.064033
     52 H13         10.7300    23.9560    22.7600 hc         1 ZMY       0.075200
     53 H14         11.8280    24.8830    23.7730 hc         1 ZMY       0.075200
     54 H15          9.9010    26.2530    24.2240 h1         1 ZMY       0.060700
     55 H16          9.0550    25.6110    22.8070 h1         1 ZMY       0.060700
     56 H18         13.1180    27.7350    18.8510 ha         1 ZMY       0.138000
     57 H17         11.3600    28.6340    20.3710 ha         1 ZMY       0.139000
     58 H10         15.4520    23.6110    20.6960 hn         1 ZMY       0.514000
     59 H19         17.5020    23.6850    21.0140 h5         1 ZMY       0.072800
     60 C8          16.8750    24.0910    30.9560 c3         1 ZMY       0.269700
@<TRIPOS>BOND
     1     1     5 ar  
     2     1    17 1   
     3     1    23 ar  
     4     2    16 1   
     5     2    37 1   
     6     2    40 1   
     7     2    41 1   
     8     3     4 1   
     9     3    24 1   
    10     3    42 1   
    11     3    43 1   
    12     4     5 ar  
    13     4    21 ar  
    14     5    18 1   
    15     6    24 1   
    16     6    25 2   
    17     6    26 1   
    18     7     8 2   
    19     7    25 1   
    20     7    44 1   
    21     8    10 1   
    22     8    32 1   
    23     9    10 ar  
    24     9    33 ar  
    25     9    45 1   
    26    10    13 ar  
    27    11    12 ar  
    28    11    33 ar  
    29    11    60 1   
    30    12    13 ar  
    31    12    46 1   
    32    13    14 1   
    33    14    37 1   
    34    14    47 1   
    35    14    48 1   
    36    15    16 1   
    37    15    49 1   
    38    15    50 1   
    39    15    51 1   
    40    16    38 1   
    41    16    39 1   
    42    17    19 1   
    43    18    19 1   
    44    18    52 1   
    45    18    53 1   
    46    19    54 1   
    47    19    55 1   
    48    20    21 1   
    49    21    22 ar  
    50    22    23 ar  
    51    22    56 1   
    52    23    57 1   
    53    24    58 1   
    54    26    27 1   
    55    26    32 1   
    56    27    28 2   
    57    27    59 1   
    58    28    29 1   
    59    29    30 1   
    60    29    32 2   
    61    30    31 2   
    62    30    37 1   
    63    34    60 1   
    64    35    60 1   
    65    36    60 1   
@<TRIPOS>SUBSTRUCTURE
     1 ZMY         1 TEMP              0 ****  ****    0 ROOT
