@<TRIPOS>MOLECULE
ZN0
   23    18     1     0     0
SMALL
abcg2


@<TRIPOS>ATOM
      1 C1          -0.2930     2.9090     1.1280 c3         1 ZN0      -0.204333
      2 C2           0.0690     1.4700     1.4850 c2         1 ZN0      -0.292667
      3 SN1          0.0520     0.1960    -0.2550 DU         1 ZN0       0.623000
      4 C3          -1.7900     0.3360    -1.3610 c2         1 ZN0      -0.292667
      5 C4          -3.0140     0.1940    -0.4640 c3         1 ZN0      -0.204333
      6 C5           1.8990     0.1840    -1.3600 c2         1 ZN0      -0.292667
      7 C6           3.1050    -0.0860    -0.4680 c3         1 ZN0      -0.204333
      8 H1           1.0620     1.4190     1.9370 ha         1 ZN0       0.097333
      9 H2          -0.6320     1.0620     2.2150 ha         1 ZN0       0.097333
     10 H3          -1.7900     1.3010    -1.8730 ha         1 ZN0       0.097333
     11 H4          -1.7780    -0.4320    -2.1360 ha         1 ZN0       0.097333
     12 H5           1.8150    -0.5680    -2.1460 ha         1 ZN0       0.097333
     13 H6           1.9880     1.1520    -1.8570 ha         1 ZN0       0.097333
     14 CL1         -0.0250    -2.0380     0.6620 cl         1 ZN0      -0.434000
     15 H7           0.3950     3.3370     0.3970 hc         1 ZN0       0.079556
     16 H8          -1.2990     2.9840     0.7090 hc         1 ZN0       0.079556
     17 H9          -0.2640     3.5520     2.0100 hc         1 ZN0       0.079556
     18 H10          3.2140     0.6720     0.3100 hc         1 ZN0       0.079556
     19 H11          3.0340    -1.0540     0.0280 hc         1 ZN0       0.079556
     20 H12          4.0310    -0.0880    -1.0470 hc         1 ZN0       0.079556
     21 H13         -3.0250    -0.7640     0.0570 hc         1 ZN0       0.079556
     22 H14         -3.0570     0.9770     0.2960 hc         1 ZN0       0.079556
     23 H15         -3.9380     0.2580    -1.0430 hc         1 ZN0       0.079556
@<TRIPOS>BOND
     1     1     2 1   
     2     1    15 1   
     3     1    16 1   
     4     1    17 1   
     5     2     8 1   
     6     2     9 1   
     7     4     5 1   
     8     4    10 1   
     9     4    11 1   
    10     5    21 1   
    11     5    22 1   
    12     5    23 1   
    13     6     7 1   
    14     6    12 1   
    15     6    13 1   
    16     7    18 1   
    17     7    19 1   
    18     7    20 1   
@<TRIPOS>SUBSTRUCTURE
     1 ZN0         1 TEMP              0 ****  ****    0 ROOT
