@<TRIPOS>MOLECULE
ZN4
   40    40     1     0     0
SMALL
No Charge or Current Charge


@<TRIPOS>ATOM
      1 S02         -0.0270     1.0770    -0.9770 s6         1 ZN4       1.179100
      2 N11          1.5880     1.3320    -0.6480 n7         1 ZN4      -0.876300
      3 O01         -0.5960     2.4050    -1.2120 o          1 ZN4      -0.521000
      4 C05         -2.6460    -1.1300     0.1300 ca         1 ZN4      -0.078500
      5 N14          4.8740    -0.4800     0.3000 n3         1 ZN4      -0.740600
      6 O19         -0.0800     0.0580    -2.0280 o          1 ZN4      -0.521000
      7 C04         -2.1600     0.1210     0.5570 ca         1 ZN4      -0.075300
      8 C03         -0.6620     0.3970     0.5700 c3         1 ZN4      -0.282100
      9 C18          5.7790    -2.8150    -0.2490 c3         1 ZN4      -0.090600
     10 C10         -3.0680     1.1130     0.9750 ca         1 ZN4      -0.078500
     11 C09         -4.4510     0.8570     0.9630 ca         1 ZN4      -0.101500
     12 C07         -4.9290    -0.3920     0.5350 ca         1 ZN4       0.128000
     13 C06         -4.0290    -1.3860     0.1190 ca         1 ZN4      -0.101500
     14 C12          2.4640     0.1610    -0.4100 c3         1 ZN4       0.197800
     15 C13          3.9300     0.6010    -0.1320 c3         1 ZN4       0.167800
     16 C17          5.0040    -1.5650    -0.7160 c3         1 ZN4       0.172800
     17 C15          6.1970     0.0540     0.7410 c3         1 ZN4       0.172800
     18 C16          6.1490     1.0220     1.9420 c3         1 ZN4      -0.090600
     19 H031        -0.1100    -0.5300     0.7540 h1         1 ZN4       0.093200
     20 H032        -0.4150     1.1220     1.3540 h1         1 ZN4       0.093200
     21 H11          1.5320     1.8820     0.2080 hn         1 ZN4       0.476000
     22 H05         -1.9530    -1.9040    -0.1940 ha         1 ZN4       0.124500
     23 H10         -2.7040     2.0830     1.3070 ha         1 ZN4       0.124500
     24 H06         -4.4020    -2.3520    -0.2120 ha         1 ZN4       0.132500
     25 H09         -5.1500     1.6240     1.2850 ha         1 ZN4       0.132500
     26 H121         2.1130    -0.4270     0.4490 h1         1 ZN4       0.062200
     27 H122         2.4530    -0.4970    -1.2890 h1         1 ZN4       0.062200
     28 H131         3.8710     1.3700     0.6480 h1         1 ZN4       0.040700
     29 H132         4.3180     1.0960    -1.0330 h1         1 ZN4       0.040700
     30 H151         6.8470    -0.7740     1.0500 h1         1 ZN4       0.032700
     31 H152         6.6990     0.5580    -0.0960 h1         1 ZN4       0.032700
     32 H171         4.0080    -1.9220    -1.0080 h1         1 ZN4       0.032700
     33 H172         5.4820    -1.1760    -1.6260 h1         1 ZN4       0.032700
     34 H161         7.1650     1.2170     2.3040 hc         1 ZN4       0.037533
     35 H162         5.7060     1.9850     1.6660 hc         1 ZN4       0.037533
     36 H163         5.5710     0.5880     2.7670 hc         1 ZN4       0.037533
     37 H181         5.6710    -3.6190    -0.9880 hc         1 ZN4       0.037533
     38 H182         6.8490    -2.6090    -0.1410 hc         1 ZN4       0.037533
     39 H183         5.3880    -3.1780     0.7090 hc         1 ZN4       0.037533
     40 Cl8         -6.6590    -0.7120     0.5210 cl         1 ZN4      -0.200000
@<TRIPOS>BOND
     1     1     2 1   
     2     1     3 2   
     3     1     6 2   
     4     1     8 1   
     5     2    14 1   
     6     2    21 1   
     7     4     7 ar  
     8     4    13 ar  
     9     4    22 1   
    10     5    15 1   
    11     5    16 1   
    12     5    17 1   
    13     7     8 1   
    14     7    10 ar  
    15     8    19 1   
    16     8    20 1   
    17     9    16 1   
    18     9    37 1   
    19     9    38 1   
    20     9    39 1   
    21    10    11 ar  
    22    10    23 1   
    23    11    12 ar  
    24    11    25 1   
    25    12    13 ar  
    26    12    40 1   
    27    13    24 1   
    28    14    15 1   
    29    14    26 1   
    30    14    27 1   
    31    15    28 1   
    32    15    29 1   
    33    16    32 1   
    34    16    33 1   
    35    17    18 1   
    36    17    30 1   
    37    17    31 1   
    38    18    34 1   
    39    18    35 1   
    40    18    36 1   
@<TRIPOS>SUBSTRUCTURE
     1 ZN4         1 TEMP              0 ****  ****    0 ROOT
