@<TRIPOS>MOLECULE
ZN4
   40    40     1     0     0
SMALL
abcg2


@<TRIPOS>ATOM
      1 S02          0.0050     0.7310    -0.9610 s6         1 ZN4       1.179100
      2 N11          1.6090     1.0620    -0.8520 n7         1 ZN4      -0.876300
      3 O01         -0.6270     1.8670    -1.6130 o          1 ZN4      -0.521000
      4 C05         -2.4780    -1.0320     0.7210 ca         1 ZN4      -0.078500
      5 N14          4.8780    -0.4310     0.0800 n3         1 ZN4      -0.740600
      6 O19         -0.1230    -0.5940    -1.5490 o          1 ZN4      -0.521000
      7 C04         -2.0760     0.3000     0.7130 ca         1 ZN4      -0.075300
      8 C03         -0.6230     0.6500     0.7290 c3         1 ZN4      -0.282100
      9 C18          5.7660    -2.6310    -0.6440 c3         1 ZN4      -0.090600
     10 C10         -3.0440     1.2980     0.6550 ca         1 ZN4      -0.078500
     11 C09         -4.3920     0.9770     0.6240 ca         1 ZN4      -0.101500
     12 C07         -4.7680    -0.3570     0.6390 ca         1 ZN4       0.128000
     13 C06         -3.8220    -1.3690     0.6900 ca         1 ZN4      -0.101500
     14 C12          2.5210     0.0380    -0.3440 c3         1 ZN4       0.197800
     15 C13          3.9390     0.5950    -0.3290 c3         1 ZN4       0.167800
     16 C17          5.3300    -1.2330    -1.0480 c3         1 ZN4       0.172800
     17 C15          5.9850     0.0980     0.8630 c3         1 ZN4       0.172800
     18 C16          5.5850     0.4510     2.2850 c3         1 ZN4      -0.090600
     19 H031        -0.0280    -0.0950     1.2590 h1         1 ZN4       0.093200
     20 H032        -0.4330     1.6260     1.1760 h1         1 ZN4       0.093200
     21 H11          1.7770     1.9940    -0.4880 hn         1 ZN4       0.476000
     22 H05         -1.7380    -1.8210     0.7640 ha         1 ZN4       0.124500
     23 H10         -2.7500     2.3400     0.6490 ha         1 ZN4       0.124500
     24 H06         -4.1250    -2.4070     0.7050 ha         1 ZN4       0.132500
     25 H09         -5.1380     1.7590     0.5870 ha         1 ZN4       0.132500
     26 H121         2.2640    -0.2900     0.6690 h1         1 ZN4       0.062200
     27 H122         2.4650    -0.8300    -1.0010 h1         1 ZN4       0.062200
     28 H131         3.9730     1.4270     0.3780 h1         1 ZN4       0.040700
     29 H132         4.1840     1.0170    -1.3150 h1         1 ZN4       0.040700
     30 H151         6.7630    -0.6660     0.9100 h1         1 ZN4       0.032700
     31 H152         6.4470     0.9700     0.3720 h1         1 ZN4       0.032700
     32 H171         4.5060    -1.3270    -1.7590 h1         1 ZN4       0.032700
     33 H172         6.1410    -0.7290    -1.5990 h1         1 ZN4       0.032700
     34 H161         6.4490     0.8120     2.8430 hc         1 ZN4       0.037533
     35 H162         4.8260     1.2340     2.3240 hc         1 ZN4       0.037533
     36 H163         5.1900    -0.4240     2.8020 hc         1 ZN4       0.037533
     37 H181         6.0740    -3.2000    -1.5220 hc         1 ZN4       0.037533
     38 H182         6.6110    -2.6220     0.0460 hc         1 ZN4       0.037533
     39 H183         4.9460    -3.1660    -0.1640 hc         1 ZN4       0.037533
     40 CL8         -6.4510    -0.7660     0.6030 cl         1 ZN4      -0.200000
@<TRIPOS>BOND
     1     1     2 1   
     2     1     3 2   
     3     1     6 2   
     4     1     8 1   
     5     2    14 1   
     6     2    21 1   
     7     4     7 ar  
     8     4    13 ar  
     9     4    22 1   
    10     5    15 1   
    11     5    16 1   
    12     5    17 1   
    13     7     8 1   
    14     7    10 ar  
    15     8    19 1   
    16     8    20 1   
    17     9    16 1   
    18     9    37 1   
    19     9    38 1   
    20     9    39 1   
    21    10    11 ar  
    22    10    23 1   
    23    11    12 ar  
    24    11    25 1   
    25    12    13 ar  
    26    12    40 1   
    27    13    24 1   
    28    14    15 1   
    29    14    26 1   
    30    14    27 1   
    31    15    28 1   
    32    15    29 1   
    33    16    32 1   
    34    16    33 1   
    35    17    18 1   
    36    17    30 1   
    37    17    31 1   
    38    18    34 1   
    39    18    35 1   
    40    18    36 1   
@<TRIPOS>SUBSTRUCTURE
     1 ZN4         1 TEMP              0 ****  ****    0 ROOT
