@<TRIPOS>MOLECULE
ZN5
   11     6     1     0     0
SMALL
abcg2


@<TRIPOS>ATOM
      1 C1           0.0060     1.4740    -1.8910 c2         1 ZN5      -0.328000
      2 SN1         -0.0240     0.5120     0.0070 DU         1 ZN5       0.505000
      3 C2          -0.0170     1.4820     1.9010 c2         1 ZN5      -0.328000
      4 BR1         -2.0070    -1.0500    -0.0050 br         1 ZN5      -0.243500
      5 BR2          1.9040    -1.1170     0.0240 br         1 ZN5      -0.243500
      6 H1           0.9030     2.0870    -1.9640 ha         1 ZN5       0.106667
      7 H2           0.0080     0.7230    -2.6770 ha         1 ZN5       0.106667
      8 H3          -0.8760     2.1040    -1.9830 ha         1 ZN5       0.106667
      9 H4          -0.8840     2.1350     1.9690 ha         1 ZN5       0.106667
     10 H5          -0.0560     0.7340     2.6890 ha         1 ZN5       0.106667
     11 H6           0.8940     2.0700     1.9940 ha         1 ZN5       0.106667
@<TRIPOS>BOND
     1     1     6 1   
     2     1     7 1   
     3     1     8 1   
     4     3     9 1   
     5     3    10 1   
     6     3    11 1   
@<TRIPOS>SUBSTRUCTURE
     1 ZN5         1 TEMP              0 ****  ****    0 ROOT
