@<TRIPOS>MOLECULE
ZN6
   17    12     1     0     0
SMALL
abcg2


@<TRIPOS>ATOM
      1 C1           3.0430    -0.0180    -0.4450 c3         1 ZN6      -0.201500
      2 C2           1.9410    -0.0240    -1.4950 c2         1 ZN6      -0.299000
      3 SN1         -0.0090    -0.0210    -0.6150 DU         1 ZN6       0.702000
      4 C3          -1.9670    -0.0310    -1.4760 c2         1 ZN6      -0.299000
      5 C4          -3.0590    -0.0270    -0.4170 c3         1 ZN6      -0.201500
      6 CL1         -0.0010    -1.8320     0.9360 cl         1 ZN6      -0.321500
      7 H1           2.9950     0.8670     0.1890 hc         1 ZN6       0.091833
      8 H2           2.9930    -0.8950     0.2000 hc         1 ZN6       0.091833
      9 H3           1.9930     0.8530    -2.1420 ha         1 ZN6       0.097000
     10 H4           1.9930    -0.9070    -2.1340 ha         1 ZN6       0.097000
     11 H5          -2.0270     0.8440    -2.1250 ha         1 ZN6       0.097000
     12 H6          -2.0210    -0.9150    -2.1120 ha         1 ZN6       0.097000
     13 H7          -3.0010    -0.9030     0.2290 hc         1 ZN6       0.091833
     14 H8          -3.0080     0.8590     0.2160 hc         1 ZN6       0.091833
     15 CL2         -0.0040     1.8060     0.9180 cl         1 ZN6      -0.321500
     16 H9           4.0210    -0.0220    -0.9280 hc         1 ZN6       0.091833
     17 H10         -4.0420    -0.0340    -0.8920 hc         1 ZN6       0.091833
@<TRIPOS>BOND
     1     1     2 1   
     2     1     7 1   
     3     1     8 1   
     4     1    16 1   
     5     2     9 1   
     6     2    10 1   
     7     4     5 1   
     8     4    11 1   
     9     4    12 1   
    10     5    13 1   
    11     5    14 1   
    12     5    17 1   
@<TRIPOS>SUBSTRUCTURE
     1 ZN6         1 TEMP              0 ****  ****    0 ROOT
