@<TRIPOS>MOLECULE
ZN8
   14     9     1     0     0
SMALL
abcg2


@<TRIPOS>ATOM
      1 C1           0.9710     0.0150     2.0900 c2         1 ZN8      -0.369000
      2 SN1          0.4570    -0.0190     0.0120 DU         1 ZN8       0.673000
      3 C2           0.9270     1.7700    -1.0660 c2         1 ZN8      -0.369000
      4 C3           0.9340    -1.8420    -1.0050 c2         1 ZN8      -0.369000
      5 CL1         -1.9560    -0.0200     0.0390 cl         1 ZN8      -0.421000
      6 H1           0.5750     0.9120     2.5630 ha         1 ZN8       0.095222
      7 H2           0.5660    -0.8620     2.5930 ha         1 ZN8       0.095222
      8 H3           2.0550     0.0110     2.1980 ha         1 ZN8       0.095222
      9 H4           2.0070     1.9160    -1.0820 ha         1 ZN8       0.095222
     10 H5           0.5700     1.6980    -2.0920 ha         1 ZN8       0.095222
     11 H6           0.4650     2.6310    -0.5880 ha         1 ZN8       0.095222
     12 H7           0.4700    -2.6880    -0.4990 ha         1 ZN8       0.095222
     13 H8           0.5800    -1.8050    -2.0340 ha         1 ZN8       0.095222
     14 H9           2.0140    -1.9860    -1.0100 ha         1 ZN8       0.095222
@<TRIPOS>BOND
     1     1     6 1   
     2     1     7 1   
     3     1     8 1   
     4     3     9 1   
     5     3    10 1   
     6     3    11 1   
     7     4    12 1   
     8     4    13 1   
     9     4    14 1   
@<TRIPOS>SUBSTRUCTURE
     1 ZN8         1 TEMP              0 ****  ****    0 ROOT
