@<TRIPOS>MOLECULE
ZNB
   71    76     1     0     0
SMALL
bcc


@<TRIPOS>ATOM
      1 N53         17.8460     6.6020    11.0500 n1         1 ZNB      -0.095000
      2 N52         18.3730     6.2170    11.9680 n2         1 ZNB       0.243000
      3 N51         19.0200     5.7330    12.8820 n2         1 ZNB      -0.250000
      4 C5          18.6960     6.1570    14.2460 c3         1 ZNB      -0.072000
      5 C4          19.5100     7.3600    14.6710 c5         1 ZNB       0.003000
      6 O4          19.1390     8.4910    13.8850 os         1 ZNB      -0.299000
      7 C2          19.3370     7.7740    16.1480 c5         1 ZNB      -0.016000
      8 O2          20.5880     7.6840    16.7720 oh         1 ZNB      -0.298000
      9 C3          18.8450     9.2390    16.0410 c5         1 ZNB      -0.040000
     10 O3          19.3250    10.0910    17.0330 oh         1 ZNB      -0.291000
     11 C1          19.4150     9.6170    14.6790 c5         1 ZNB       0.154000
     12 N9A         18.9540    10.8050    14.0120 na         1 ZNB      -0.136000
     13 C4A         19.8160    11.5720    13.2710 c2         1 ZNB       0.109000
     14 N3A         21.1270    11.4120    13.1310 n2         1 ZNB      -0.218000
     15 C2A         21.6560    12.3430    12.3440 c2         1 ZNB       0.084000
     16 N1A         21.0420    13.3490    11.7260 n2         1 ZNB      -0.284000
     17 C6A         19.7200    13.4950    11.8730 c2         1 ZNB       0.275000
     18 N6A         19.0940    14.4910    11.2560 nv         1 ZNB      -0.334000
     19 C5A         19.0460    12.5610    12.6890 c2         1 ZNB      -0.264000
     20 N7A         17.7380    12.4140    13.0400 n2         1 ZNB      -0.089000
     21 C8A         17.7040    11.3720    13.8190 c2         1 ZNB      -0.226000
     22 S81         16.1880    10.9330    14.5880 ss         1 ZNB       0.331000
     23 C82         15.7570     9.3840    13.7770 c3         1 ZNB      -0.332000
     24 C83         15.5950     9.4520    12.2940 c2         1 ZNB       0.316000
     25 O83         15.4940     8.3020    11.7380 oh         1 ZNB      -0.189000
     26 N5          15.5670    10.5780    11.6530 n7         1 ZNB      -0.253000
     27 C7          15.3120    10.7730    10.2270 c3         1 ZNB      -0.052000
     28 C9          16.4070    10.2290     9.3350 c5         1 ZNB       0.005000
     29 O1          16.3320     8.8070     9.3310 os         1 ZNB      -0.336000
     30 C11         16.2490    10.5970     7.8620 c5         1 ZNB       0.031000
     31 O6          16.8010    11.8540     7.6470 oh         1 ZNB      -0.295000
     32 C10         16.9540     9.4230     7.1260 c5         1 ZNB      -0.028000
     33 O5          18.2280     9.8230     6.7210 oh         1 ZNB      -0.289000
     34 C12         17.0350     8.3120     8.2070 c5         1 ZNB       0.152000
     35 N9N         16.5120     7.0190     7.8730 na         1 ZNB      -0.184000
     36 C8N         15.2350     6.6100     7.5610 c2         1 ZNB      -0.111000
     37 BR8         13.8050     7.7800     7.4490 br         1 ZNB       0.138000
     38 N7N         15.1200     5.3400     7.3670 n2         1 ZNB      -0.055000
     39 C5N         16.3880     4.8490     7.5570 c2         1 ZNB      -0.253000
     40 C4N         17.2650     5.8680     7.8750 c2         1 ZNB       0.094000
     41 N3N         18.5620     5.7530     8.1210 n2         1 ZNB      -0.238000
     42 C2N         18.9630     4.4940     8.0400 c2         1 ZNB       0.071000
     43 N1N         18.2400     3.4160     7.7500 n2         1 ZNB      -0.288000
     44 C6N         16.9310     3.5490     7.4990 c2         1 ZNB       0.273000
     45 N6N         16.2070     2.4750     7.2020 nv         1 ZNB      -0.332000
     46 H1          15.6740     8.3150    10.7860 ho         1 ZNB       0.324000
     47 H2          17.6260     6.3360    14.3750 h1         1 ZNB       0.108000
     48 H3          18.9620     5.3220    14.8930 h1         1 ZNB       0.108000
     49 H4          20.5710     7.1370    14.5040 h1         1 ZNB       0.150000
     50 H5          18.5910     7.1540    16.6610 h1         1 ZNB       0.095000
     51 H6          20.5490     8.1790    17.5990 ho         1 ZNB       0.230000
     52 H7          17.7550     9.2340    16.0030 h1         1 ZNB       0.084000
     53 H8          18.6780    10.1480    17.7440 ho         1 ZNB       0.225000
     54 H9          20.4980     9.7580    14.7810 h2         1 ZNB       0.172000
     55 H10         22.7270    12.2840    12.1870 h5         1 ZNB       0.204000
     56 H11         19.6150    15.1510    10.7000 hn         1 ZNB       0.255500
     57 H12         18.1050    14.6400    11.3700 hn         1 ZNB       0.255500
     58 H13         14.8070     9.0650    14.2200 h1         1 ZNB       0.179500
     59 H14         16.4860     8.6070    13.9950 h1         1 ZNB       0.179500
     60 H15         15.6630    11.4200    12.2160 hn         1 ZNB       0.309000
     61 H16         15.2460    11.8490    10.0830 h1         1 ZNB       0.143000
     62 H17         14.3390    10.3480     9.9620 h1         1 ZNB       0.143000
     63 H18         17.3890    10.5570     9.6950 h1         1 ZNB       0.144000
     64 H19         15.1850    10.5700     7.6010 h1         1 ZNB       0.093000
     65 H20         16.5130    12.1860     6.7880 ho         1 ZNB       0.236000
     66 H21         16.3590     9.0850     6.2700 h1         1 ZNB       0.114000
     67 H22         18.5520     9.2070     6.0530 ho         1 ZNB       0.231000
     68 H23         18.0860     8.1490     8.4620 h2         1 ZNB       0.169000
     69 H24         20.0150     4.3140     8.2300 h5         1 ZNB       0.198000
     70 H25         16.6300     1.5600     7.2140 hn         1 ZNB       0.258000
     71 H26         15.2120     2.5390     7.0600 hn         1 ZNB       0.258000
@<TRIPOS>BOND
     1     1     2 1   
     2     2     3 1   
     3     3     4 1   
     4     4     5 1   
     5     4    47 1   
     6     4    48 1   
     7     5     6 1   
     8     5     7 1   
     9     5    49 1   
    10     6    11 1   
    11     7     8 1   
    12     7     9 1   
    13     7    50 1   
    14     8    51 1   
    15     9    10 1   
    16     9    11 1   
    17     9    52 1   
    18    10    53 1   
    19    11    12 1   
    20    11    54 1   
    21    12    13 1   
    22    12    21 1   
    23    13    14 1   
    24    13    19 1   
    25    14    15 1   
    26    15    16 1   
    27    15    55 1   
    28    16    17 1   
    29    17    18 1   
    30    17    19 1   
    31    18    56 1   
    32    18    57 1   
    33    19    20 1   
    34    20    21 1   
    35    21    22 1   
    36    22    23 1   
    37    23    24 1   
    38    23    58 1   
    39    23    59 1   
    40    24    25 1   
    41    24    26 1   
    42    25    46 1   
    43    26    27 1   
    44    26    60 1   
    45    27    28 1   
    46    27    61 1   
    47    27    62 1   
    48    28    29 1   
    49    28    30 1   
    50    28    63 1   
    51    29    34 1   
    52    30    31 1   
    53    30    32 1   
    54    30    64 1   
    55    31    65 1   
    56    32    33 1   
    57    32    34 1   
    58    32    66 1   
    59    33    67 1   
    60    34    35 1   
    61    34    68 1   
    62    35    36 1   
    63    35    40 1   
    64    36    37 1   
    65    36    38 1   
    66    38    39 1   
    67    39    40 1   
    68    39    44 1   
    69    40    41 1   
    70    41    42 1   
    71    42    43 1   
    72    42    69 1   
    73    43    44 1   
    74    44    45 1   
    75    45    70 1   
    76    45    71 1   
@<TRIPOS>SUBSTRUCTURE
     1 ZNB         1 TEMP              0 ****  ****    0 ROOT
