@<TRIPOS>MOLECULE
ZNB
   71    76     1     0     0
SMALL
No Charge or Current Charge


@<TRIPOS>ATOM
      1 N53         17.8730     6.6020    11.0990 n1         1 ZNB      -0.095000
      2 N52         18.4600     6.0700    12.0500 n2         1 ZNB       0.243000
      3 N51         19.0580     5.5250    13.0210 n2         1 ZNB      -0.250000
      4 C5          18.6460     6.0530    14.3340 c3         1 ZNB      -0.072000
      5 C4          19.5050     7.2820    14.7220 c5         1 ZNB       0.003000
      6 O4          19.1500     8.4140    13.9020 os         1 ZNB      -0.299000
      7 C2          19.3740     7.7780    16.2100 c5         1 ZNB      -0.016000
      8 O2          20.6660     7.7920    16.8190 oh         1 ZNB      -0.298000
      9 C3          18.8040     9.2260    16.0300 c5         1 ZNB      -0.040000
     10 O3          19.1550    10.1150    17.0900 oh         1 ZNB      -0.291000
     11 C1          19.4330     9.5950    14.6620 c5         1 ZNB       0.154000
     12 N9A         18.9970    10.7800    13.8950 na         1 ZNB      -0.136000
     13 C4A         19.8330    11.6310    13.1680 c2         1 ZNB       0.109000
     14 N3A         21.1020    11.5000    12.9790 n2         1 ZNB      -0.218000
     15 C2A         21.7300    12.3830    12.2380 c2         1 ZNB       0.084000
     16 N1A         21.0220    13.3520    11.6900 n2         1 ZNB      -0.284000
     17 C6A         19.7430    13.4760    11.8820 c2         1 ZNB       0.275000
     18 N6A         18.9840    14.4810    11.2950 nv         1 ZNB      -0.334000
     19 C5A         19.0970    12.5950    12.6670 c2         1 ZNB      -0.264000
     20 N7A         17.8630    12.5290    13.0160 n2         1 ZNB      -0.089000
     21 C8A         17.7390    11.4790    13.7650 c2         1 ZNB      -0.226000
     22 S81         16.2470    10.9800    14.6380 ss         1 ZNB       0.331000
     23 C82         15.8270     9.3610    13.8590 c3         1 ZNB      -0.332000
     24 C83         15.7060     9.4390    12.3550 c2         1 ZNB       0.316000
     25 O83         15.2300     8.3290    11.7710 oh         1 ZNB      -0.189000
     26 N5          15.5720    10.7000    11.6940 n7         1 ZNB      -0.253000
     27 C7          15.2360    10.8260    10.2550 c3         1 ZNB      -0.052000
     28 C9          16.3350    10.2500     9.3250 c5         1 ZNB       0.005000
     29 O1          16.2410     8.8220     9.3120 os         1 ZNB      -0.336000
     30 C11         16.1480    10.5800     7.8250 c5         1 ZNB       0.031000
     31 O6          16.5570    11.9080     7.5050 oh         1 ZNB      -0.295000
     32 C10         17.0030     9.4640     7.1300 c5         1 ZNB      -0.028000
     33 O5          18.3280     9.8940     6.8140 oh         1 ZNB      -0.289000
     34 C12         17.0490     8.3410     8.2230 c5         1 ZNB       0.152000
     35 N9N         16.5870     7.0120     7.8190 na         1 ZNB      -0.184000
     36 C8N         15.2740     6.5600     7.4750 c2         1 ZNB      -0.111000
     37 Br8         13.7420     7.7020     7.3870 br         1 ZNB       0.138000
     38 N7N         15.2580     5.2760     7.2900 n2         1 ZNB      -0.055000
     39 C5N         16.4630     4.8600     7.4800 c2         1 ZNB      -0.253000
     40 C4N         17.3040     5.8190     7.7840 c2         1 ZNB       0.094000
     41 N3N         18.5600     5.6560     8.0260 n2         1 ZNB      -0.238000
     42 C2N         19.0610     4.4430     7.9760 c2         1 ZNB       0.071000
     43 N1N         18.2510     3.4460     7.6780 n2         1 ZNB      -0.288000
     44 C6N         16.9880     3.6200     7.4310 c2         1 ZNB       0.273000
     45 N6N         16.1350     2.5690     7.1280 nv         1 ZNB      -0.332000
     46 H1          15.3150     8.4550    10.8030 ho         1 ZNB       0.324000
     47 H2          17.5790     6.3180    14.3590 h1         1 ZNB       0.108000
     48 H3          18.8090     5.2700    15.0850 h1         1 ZNB       0.108000
     49 H4          20.5560     7.0310    14.5140 h1         1 ZNB       0.150000
     50 H5          18.6850     7.1480    16.7910 h1         1 ZNB       0.095000
     51 H6          20.5860     8.2750    17.6630 ho         1 ZNB       0.230000
     52 H7          17.7150     9.1660    15.9540 h1         1 ZNB       0.084000
     53 H8          18.5540     9.9340    17.8400 ho         1 ZNB       0.225000
     54 H9          20.5200     9.7010    14.7800 h2         1 ZNB       0.172000
     55 H10         22.8080    12.3130    12.0710 h5         1 ZNB       0.204000
     56 H11         19.4630    15.2370    10.8240 hn         1 ZNB       0.255500
     57 H12         18.0240    14.6040    11.5900 hn         1 ZNB       0.255500
     58 H13         14.8810     9.0160    14.3000 h1         1 ZNB       0.179500
     59 H14         16.6090     8.6390    14.1150 h1         1 ZNB       0.179500
     60 H15         16.2100    11.4660    11.9620 hn         1 ZNB       0.309000
     61 H16         15.1070    11.8860     9.9900 h1         1 ZNB       0.143000
     62 H17         14.2770    10.3350    10.0190 h1         1 ZNB       0.143000
     63 H18         17.3310    10.5600     9.6780 h1         1 ZNB       0.144000
     64 H19         15.0900    10.4500     7.5590 h1         1 ZNB       0.093000
     65 H20         16.5180    12.0010     6.5310 ho         1 ZNB       0.236000
     66 H21         16.4910     9.1030     6.2270 h1         1 ZNB       0.114000
     67 H22         18.7000     9.2480     6.1820 ho         1 ZNB       0.231000
     68 H23         18.0810     8.2110     8.5780 h2         1 ZNB       0.169000
     69 H24         20.1200     4.2630     8.1790 h5         1 ZNB       0.198000
     70 H25         16.4670     1.6320     7.3170 hn         1 ZNB       0.258000
     71 H26         15.1380     2.7360     7.1640 hn         1 ZNB       0.258000
@<TRIPOS>BOND
     1     1     2 1   
     2     2     3 1   
     3     3     4 1   
     4     4     5 1   
     5     4    47 1   
     6     4    48 1   
     7     5     6 1   
     8     5     7 1   
     9     5    49 1   
    10     6    11 1   
    11     7     8 1   
    12     7     9 1   
    13     7    50 1   
    14     8    51 1   
    15     9    10 1   
    16     9    11 1   
    17     9    52 1   
    18    10    53 1   
    19    11    12 1   
    20    11    54 1   
    21    12    13 1   
    22    12    21 1   
    23    13    14 1   
    24    13    19 1   
    25    14    15 1   
    26    15    16 1   
    27    15    55 1   
    28    16    17 1   
    29    17    18 1   
    30    17    19 1   
    31    18    56 1   
    32    18    57 1   
    33    19    20 1   
    34    20    21 1   
    35    21    22 1   
    36    22    23 1   
    37    23    24 1   
    38    23    58 1   
    39    23    59 1   
    40    24    25 1   
    41    24    26 1   
    42    25    46 1   
    43    26    27 1   
    44    26    60 1   
    45    27    28 1   
    46    27    61 1   
    47    27    62 1   
    48    28    29 1   
    49    28    30 1   
    50    28    63 1   
    51    29    34 1   
    52    30    31 1   
    53    30    32 1   
    54    30    64 1   
    55    31    65 1   
    56    32    33 1   
    57    32    34 1   
    58    32    66 1   
    59    33    67 1   
    60    34    35 1   
    61    34    68 1   
    62    35    36 1   
    63    35    40 1   
    64    36    37 1   
    65    36    38 1   
    66    38    39 1   
    67    39    40 1   
    68    39    44 1   
    69    40    41 1   
    70    41    42 1   
    71    42    43 1   
    72    42    69 1   
    73    43    44 1   
    74    44    45 1   
    75    45    70 1   
    76    45    71 1   
@<TRIPOS>SUBSTRUCTURE
     1 ZNB         1 TEMP              0 ****  ****    0 ROOT
