@<TRIPOS>MOLECULE
ZNC
   47    50     1     0     0
SMALL
No Charge or Current Charge


@<TRIPOS>ATOM
      1 N           -1.8530    -8.3470    18.9370 n3         1 ZNC      -0.715600
      2 C           -4.3410    -8.4520    18.3570 c3         1 ZNC      -0.075400
      3 C1          -3.0200    -7.6470    18.3440 c3         1 ZNC       0.169800
      4 C10          3.5380   -13.2480    21.5590 ca         1 ZNC       0.356900
      5 C11          2.4130   -13.2650    20.7080 ca         1 ZNC      -0.198000
      6 C12          1.7010   -12.0730    20.4870 ca         1 ZNC      -0.026000
      7 C13          2.1790   -10.9360    21.1500 ca         1 ZNC      -0.122800
      8 C14         -5.4750    -7.7540    17.5770 c3         1 ZNC      -0.032100
      9 C15         -6.7690    -8.5580    17.6080 ca         1 ZNC      -0.077300
     10 C16         -7.7150    -8.3430    18.6290 ca         1 ZNC      -0.107500
     11 C17         -8.9070    -9.0880    18.6600 ca         1 ZNC      -0.109000
     12 C18         -9.1590   -10.0530    17.6700 ca         1 ZNC      -0.112000
     13 C19         -8.2180   -10.2730    16.6490 ca         1 ZNC      -0.109000
     14 C2          -1.9830    -8.6290    20.3950 c6         1 ZNC       0.167800
     15 C20         -7.0260    -9.5280    16.6190 ca         1 ZNC      -0.107500
     16 C3          -0.8490    -9.5650    20.8760 c6         1 ZNC      -0.035200
     17 C4           0.5240    -9.0950    20.3910 ce         1 ZNC      -0.028200
     18 C5           0.6220    -8.2190    19.3690 c2         1 ZNC      -0.225200
     19 C6          -0.5830    -7.6260    18.6550 c6         1 ZNC       0.204000
     20 C7           1.6800    -9.5900    21.1250 cc         1 ZNC      -0.090200
     21 C8           2.5400    -8.8650    21.9360 cd         1 ZNC      -0.142100
     22 C9           3.2880   -10.9910    21.9620 ca         1 ZNC       0.366500
     23 N1           3.5320    -9.7300    22.4620 na         1 ZNC      -0.323400
     24 N2           3.9800   -12.1250    22.1830 nb         1 ZNC      -0.684000
     25 H2          -4.6740    -8.6070    19.3890 hc         1 ZNC       0.051700
     26 H3          -4.1610    -9.4420    17.9210 hc         1 ZNC       0.051700
     27 H4          -2.7940    -7.4070    17.2960 h1         1 ZNC       0.027700
     28 H5          -3.1850    -6.6910    18.8600 h1         1 ZNC       0.027700
     29 H6           4.1050   -14.1600    21.7450 h4         1 ZNC       0.018100
     30 H7           2.1060   -14.1920    20.2310 ha         1 ZNC       0.121000
     31 H8           0.8320   -12.0370    19.8340 ha         1 ZNC       0.122000
     32 H9          -5.1550    -7.5960    16.5400 hc         1 ZNC       0.045200
     33 H10         -5.6420    -6.7560    18.0010 hc         1 ZNC       0.045200
     34 H11         -7.5260    -7.6000    19.4010 ha         1 ZNC       0.110000
     35 H12         -9.6340    -8.9190    19.4510 ha         1 ZNC       0.111500
     36 H13        -10.0810   -10.6300    17.6930 ha         1 ZNC       0.111000
     37 H14         -8.4110   -11.0200    15.8830 ha         1 ZNC       0.111500
     38 H15         -1.9470    -7.6900    20.9670 h1         1 ZNC       0.032200
     39 H16         -2.9410    -9.1150    20.6280 h1         1 ZNC       0.032200
     40 H17         -6.3020    -9.7050    15.8270 ha         1 ZNC       0.110000
     41 H18         -0.8640    -9.6300    21.9720 hc         1 ZNC       0.050700
     42 H19         -1.0370   -10.5780    20.4990 hc         1 ZNC       0.050700
     43 H20          1.5970    -7.8670    19.0320 ha         1 ZNC       0.177000
     44 H21         -0.3880    -7.6200    17.5720 h1         1 ZNC       0.037200
     45 H22         -0.6750    -6.5740    18.9650 h1         1 ZNC       0.037200
     46 H23          2.5110    -7.8050    22.1780 h4         1 ZNC       0.215000
     47 H24          4.2910    -9.4850    23.0860 hn         1 ZNC       0.362000
@<TRIPOS>BOND
     1     1     3 1   
     2     1    14 1   
     3     1    19 1   
     4     2     3 1   
     5     2     8 1   
     6     2    25 1   
     7     2    26 1   
     8     3    27 1   
     9     3    28 1   
    10     4     5 ar  
    11     4    24 ar  
    12     4    29 1   
    13     5     6 ar  
    14     5    30 1   
    15     6     7 ar  
    16     6    31 1   
    17     7    20 1   
    18     7    22 ar  
    19     8     9 1   
    20     8    32 1   
    21     8    33 1   
    22     9    10 ar  
    23     9    15 ar  
    24    10    11 ar  
    25    10    34 1   
    26    11    12 ar  
    27    11    35 1   
    28    12    13 ar  
    29    12    36 1   
    30    13    15 ar  
    31    13    37 1   
    32    14    16 1   
    33    14    38 1   
    34    14    39 1   
    35    15    40 1   
    36    16    17 1   
    37    16    41 1   
    38    16    42 1   
    39    17    18 2   
    40    17    20 1   
    41    18    19 1   
    42    18    43 1   
    43    19    44 1   
    44    19    45 1   
    45    20    21 2   
    46    21    23 1   
    47    21    46 1   
    48    22    23 1   
    49    22    24 ar  
    50    23    47 1   
@<TRIPOS>SUBSTRUCTURE
     1 ZNC         1 TEMP              0 ****  ****    0 ROOT
