@<TRIPOS>MOLECULE
ZNC
   47    50     1     0     0
SMALL
bcc


@<TRIPOS>ATOM
      1 N           -1.9920    -8.8660    18.8490 n3         1 ZNC      -0.715600
      2 C           -4.4050    -8.6940    18.2660 c3         1 ZNC      -0.075400
      3 C1          -2.9780    -8.2500    17.9790 c3         1 ZNC       0.169800
      4 C10          4.7080   -12.2230    21.2870 ca         1 ZNC       0.422200
      5 C11          4.1330   -12.0360    20.0270 ca         1 ZNC      -0.281300
      6 C12          2.9610   -11.3090    19.9030 ca         1 ZNC      -0.044000
      7 C13          2.3960   -10.7800    21.0620 ca         1 ZNC      -0.188100
      8 C14         -5.3990    -8.0560    17.2920 c3         1 ZNC      -0.032100
      9 C15         -6.8150    -8.4620    17.5900 ca         1 ZNC      -0.077300
     10 C16         -7.5340    -7.8290    18.6030 ca         1 ZNC      -0.125500
     11 C17         -8.8250    -8.2280    18.9180 ca         1 ZNC      -0.127000
     12 C18         -9.4220    -9.2720    18.2220 ca         1 ZNC      -0.130000
     13 C19         -8.7180    -9.9090    17.2090 ca         1 ZNC      -0.127000
     14 C2          -2.0160    -8.3420    20.2010 c6         1 ZNC       0.167800
     15 C20         -7.4250    -9.5060    16.8990 ca         1 ZNC      -0.125500
     16 C3          -1.1630    -9.2030    21.1170 c6         1 ZNC      -0.035200
     17 C4           0.1900    -9.4780    20.5200 ce         1 ZNC      -0.028200
     18 C5           0.4010    -9.2220    19.2250 c2         1 ZNC      -0.175200
     19 C6          -0.6620    -8.7410    18.2910 c6         1 ZNC       0.204000
     20 C7           1.2230   -10.0170    21.4020 cc         1 ZNC      -0.090200
     21 C8           1.2490    -9.8990    22.7700 cd         1 ZNC      -0.092100
     22 C9           3.0710   -11.0650    22.2730 ca         1 ZNC       0.431800
     23 N1           2.3510   -10.5150    23.2860 na         1 ZNC      -0.273100
     24 N2           4.1910   -11.7550    22.4130 nb         1 ZNC      -0.684000
     25 H2          -4.6980    -8.4320    19.2860 hc         1 ZNC       0.051700
     26 H3          -4.4650    -9.7830    18.1930 hc         1 ZNC       0.051700
     27 H4          -2.7340    -8.5310    16.9500 h1         1 ZNC       0.027700
     28 H5          -2.9170    -7.1480    18.0170 h1         1 ZNC       0.027700
     29 H6           5.6290   -12.7890    21.3790 h4         1 ZNC       0.018100
     30 H7           4.6100   -12.4640    19.1570 ha         1 ZNC       0.139000
     31 H8           2.5060   -11.1730    18.9310 ha         1 ZNC       0.140000
     32 H9          -5.1380    -8.3400    16.2690 hc         1 ZNC       0.045200
     33 H10         -5.3080    -6.9680    17.3490 hc         1 ZNC       0.045200
     34 H11         -7.0780    -7.0110    19.1500 ha         1 ZNC       0.128000
     35 H12         -9.3680    -7.7220    19.7060 ha         1 ZNC       0.129500
     36 H13        -10.4300    -9.5830    18.4650 ha         1 ZNC       0.129000
     37 H14         -9.1760   -10.7200    16.6570 ha         1 ZNC       0.129500
     38 H15         -1.6580    -7.2980    20.2330 h1         1 ZNC       0.032200
     39 H16         -3.0400    -8.3320    20.5730 h1         1 ZNC       0.032200
     40 H17         -6.8830   -10.0080    16.1050 ha         1 ZNC       0.128000
     41 H18         -1.0600    -8.6890    22.0770 hc         1 ZNC       0.050700
     42 H19         -1.6710   -10.1480    21.3330 hc         1 ZNC       0.050700
     43 H20          1.3850    -9.3450    18.7890 ha         1 ZNC       0.127000
     44 H21         -0.6130    -9.3220    17.3630 h1         1 ZNC       0.037200
     45 H22         -0.4340    -7.6980    18.0000 h1         1 ZNC       0.037200
     46 H23          0.5540    -9.4040    23.4290 h4         1 ZNC       0.165000
     47 H24          2.5900   -10.5600    24.2640 hn         1 ZNC       0.311700
@<TRIPOS>BOND
     1     1     3 1   
     2     1    14 1   
     3     1    19 1   
     4     2     3 1   
     5     2     8 1   
     6     2    25 1   
     7     2    26 1   
     8     3    27 1   
     9     3    28 1   
    10     4     5 ar  
    11     4    24 ar  
    12     4    29 1   
    13     5     6 ar  
    14     5    30 1   
    15     6     7 ar  
    16     6    31 1   
    17     7    20 1   
    18     7    22 ar  
    19     8     9 1   
    20     8    32 1   
    21     8    33 1   
    22     9    10 ar  
    23     9    15 ar  
    24    10    11 ar  
    25    10    34 1   
    26    11    12 ar  
    27    11    35 1   
    28    12    13 ar  
    29    12    36 1   
    30    13    15 ar  
    31    13    37 1   
    32    14    16 1   
    33    14    38 1   
    34    14    39 1   
    35    15    40 1   
    36    16    17 1   
    37    16    41 1   
    38    16    42 1   
    39    17    18 2   
    40    17    20 1   
    41    18    19 1   
    42    18    43 1   
    43    19    44 1   
    44    19    45 1   
    45    20    21 2   
    46    21    23 1   
    47    21    46 1   
    48    22    23 1   
    49    22    24 ar  
    50    23    47 1   
@<TRIPOS>SUBSTRUCTURE
     1 ZNC         1 TEMP              0 ****  ****    0 ROOT
