@<TRIPOS>MOLECULE
ZNE
   74    77     1     0     0
SMALL
No Charge or Current Charge


@<TRIPOS>ATOM
      1 C1           6.6960     2.8440    -0.5830 c6         1 ZNE       0.211500
      2 N1          -8.3890     2.2060     0.0430 nc         1 ZNE      -0.642000
      3 O1           5.9320     3.1380     0.5880 oh         1 ZNE      -0.656000
      4 S1          -8.7680     0.1900    -1.6100 ss         1 ZNE      -0.001400
      5 C2           8.1880     2.6300    -0.2260 c6         1 ZNE      -0.065400
      6 O2           9.8110     1.1270     0.8070 oh         1 ZNE      -0.661000
      7 C3           8.4120     1.3150     0.5590 c6         1 ZNE       0.176300
      8 O3          -7.5330    -0.9680     1.2730 oh         1 ZNE      -0.651000
      9 C4           7.8440     0.1070    -0.2270 c6         1 ZNE      -0.074200
     10 C5           6.3660     0.3230    -0.5760 ce         1 ZNE      -0.066200
     11 C6           5.4330    -0.6370    -0.3010 cf         1 ZNE      -0.163000
     12 C7           3.9950    -0.5360    -0.5690 cf         1 ZNE      -0.191000
     13 C8           3.0600    -1.5250    -0.4710 c2         1 ZNE      -0.077400
     14 C9           3.3800    -2.9810    -0.1070 c6         1 ZNE      -0.042200
     15 C10          6.1090     1.6010    -1.2680 ce         1 ZNE      -0.125200
     16 C11          2.4680    -3.5120     1.0290 c6         1 ZNE      -0.071400
     17 C12          0.9640    -3.2200     0.7650 c6         1 ZNE      -0.063400
     18 C13          0.6990    -1.7060     0.4590 c5         1 ZNE      -0.035000
     19 C14          1.5670    -1.3170    -0.7880 c5         1 ZNE      -0.036500
     20 C15          1.1080     0.1360    -1.0660 c5         1 ZNE      -0.070400
     21 C16         -0.4370     0.0330    -0.8740 c5         1 ZNE      -0.077400
     22 C17         -0.7120    -1.3570    -0.1720 c5         1 ZNE      -0.052700
     23 C18          0.9950    -0.8770     1.7570 c3         1 ZNE      -0.079100
     24 C19          5.4480     1.6860    -2.4440 c2         1 ZNE      -0.295000
     25 C20         -1.9970    -1.3410     0.7400 c3         1 ZNE      -0.047700
     26 C21         -2.2070    -2.6490     1.5470 c3         1 ZNE      -0.087100
     27 C22         -3.2740    -0.9830    -0.0880 c3         1 ZNE      -0.077400
     28 C23         -4.5490    -0.6680     0.7360 c3         1 ZNE      -0.074400
     29 C24         -5.7130    -0.1430    -0.1400 c3         1 ZNE      -0.105400
     30 C25         -6.9930     0.2230     0.6570 c3         1 ZNE       0.136000
     31 C26         -8.0190     0.9530    -0.2080 cd         1 ZNE       0.385700
     32 C27         -9.3080     2.6170    -0.8900 cc         1 ZNE       0.274900
     33 C31         -9.6400     1.6930    -1.8500 cd         1 ZNE      -0.278000
     34 H1           6.6360     3.6960    -1.2770 h1         1 ZNE       0.036700
     35 HO1          4.9980     2.9660     0.3410 ho         1 ZNE       0.444000
     36 H2           8.7750     2.6060    -1.1540 hc         1 ZNE       0.062200
     37 H2A          8.5590     3.4850     0.3540 hc         1 ZNE       0.062200
     38 HO2          9.8930     0.3240     1.3670 ho         1 ZNE       0.441000
     39 H3           7.8710     1.3880     1.5160 h1         1 ZNE       0.049700
     40 H4           8.4150    -0.0370    -1.1550 hc         1 ZNE       0.051700
     41 H4A          7.9740    -0.8110     0.3620 hc         1 ZNE       0.051700
     42 H6           5.7920    -1.5400     0.1870 ha         1 ZNE       0.169000
     43 H7           3.6690     0.4540    -0.8780 ha         1 ZNE       0.174000
     44 H9           3.2300    -3.6020    -1.0010 hc         1 ZNE       0.046200
     45 H9A          4.4250    -3.1320     0.1810 hc         1 ZNE       0.046200
     46 H11          2.6180    -4.5940     1.1430 hc         1 ZNE       0.041200
     47 H11A         2.7760    -3.0660     1.9840 hc         1 ZNE       0.041200
     48 H12          0.6230    -3.8370    -0.0780 hc         1 ZNE       0.040700
     49 H12A         0.3980    -3.5560     1.6390 hc         1 ZNE       0.040700
     50 H14          1.3140    -1.9470    -1.6510 hc         1 ZNE       0.052700
     51 H15          1.5340     0.8590    -0.3620 hc         1 ZNE       0.043700
     52 H15A         1.3800     0.4710    -2.0740 hc         1 ZNE       0.043700
     53 H16         -0.7990     0.8750    -0.2720 hc         1 ZNE       0.041700
     54 H16A        -0.9580     0.0940    -1.8360 hc         1 ZNE       0.041700
     55 H17         -0.9360    -2.0990    -0.9500 hc         1 ZNE       0.044700
     56 H18          2.0630    -0.8560     2.0000 hc         1 ZNE       0.034700
     57 H18A         0.6680     0.1660     1.6760 hc         1 ZNE       0.034700
     58 H18B         0.4720    -1.2970     2.6230 hc         1 ZNE       0.034700
     59 H19          5.2850     2.6390    -2.9480 ha         1 ZNE       0.168500
     60 H19A         5.0560     0.7990    -2.9430 ha         1 ZNE       0.168500
     61 H20         -1.8700    -0.5390     1.4780 hc         1 ZNE       0.048700
     62 H21         -3.1760    -2.6710     2.0530 hc         1 ZNE       0.032700
     63 H21A        -2.1440    -3.5280     0.8950 hc         1 ZNE       0.032700
     64 H21B        -1.4600    -2.7370     2.3410 hc         1 ZNE       0.032700
     65 H22         -3.0700    -0.1030    -0.7070 hc         1 ZNE       0.040200
     66 H22A        -3.4890    -1.8020    -0.7860 hc         1 ZNE       0.040200
     67 H23         -4.8860    -1.5680     1.2620 hc         1 ZNE       0.043700
     68 H23A        -4.3080     0.0820     1.5010 hc         1 ZNE       0.043700
     69 H24         -5.3710     0.7530    -0.6730 hc         1 ZNE       0.058200
     70 H24A        -5.9550    -0.8890    -0.9080 hc         1 ZNE       0.058200
     71 H25         -6.6940     0.9310     1.4430 h1         1 ZNE       0.093700
     72 H27         -9.7040     3.6220    -0.8120 h4         1 ZNE       0.041100
     73 H31        -10.3360     1.8090    -2.6700 h4         1 ZNE       0.161000
     74 HO3         -7.6650    -1.6360     0.5650 ho         1 ZNE       0.447000
@<TRIPOS>BOND
     1     1     3 1   
     2     1     5 1   
     3     1    15 1   
     4     1    34 1   
     5     2    31 2   
     6     2    32 1   
     7     3    35 1   
     8     4    31 1   
     9     4    33 1   
    10     5     7 1   
    11     5    36 1   
    12     5    37 1   
    13     6     7 1   
    14     6    38 1   
    15     7     9 1   
    16     7    39 1   
    17     8    30 1   
    18     8    74 1   
    19     9    10 1   
    20     9    40 1   
    21     9    41 1   
    22    10    11 2   
    23    10    15 1   
    24    11    12 1   
    25    11    42 1   
    26    12    13 2   
    27    12    43 1   
    28    13    14 1   
    29    13    19 1   
    30    14    16 1   
    31    14    44 1   
    32    14    45 1   
    33    15    24 2   
    34    16    17 1   
    35    16    46 1   
    36    16    47 1   
    37    17    18 1   
    38    17    48 1   
    39    17    49 1   
    40    18    19 1   
    41    18    22 1   
    42    18    23 1   
    43    19    20 1   
    44    19    50 1   
    45    20    21 1   
    46    20    51 1   
    47    20    52 1   
    48    21    22 1   
    49    21    53 1   
    50    21    54 1   
    51    22    25 1   
    52    22    55 1   
    53    23    56 1   
    54    23    57 1   
    55    23    58 1   
    56    24    59 1   
    57    24    60 1   
    58    25    26 1   
    59    25    27 1   
    60    25    61 1   
    61    26    62 1   
    62    26    63 1   
    63    26    64 1   
    64    27    28 1   
    65    27    65 1   
    66    27    66 1   
    67    28    29 1   
    68    28    67 1   
    69    28    68 1   
    70    29    30 1   
    71    29    69 1   
    72    29    70 1   
    73    30    31 1   
    74    30    71 1   
    75    32    33 2   
    76    32    72 1   
    77    33    73 1   
@<TRIPOS>SUBSTRUCTURE
     1 ZNE         1 TEMP              0 ****  ****    0 ROOT
