@<TRIPOS>MOLECULE
ZNE
   74    77     1     0     0
SMALL
abcg2


@<TRIPOS>ATOM
      1 C1           6.5200     2.7950    -0.1750 c6         1 ZNE       0.211500
      2 N1          -7.7670     1.5730    -1.2420 nc         1 ZNE      -0.642000
      3 O1           5.7440     2.8610     1.0070 oh         1 ZNE      -0.656000
      4 S1          -9.3960     0.7420     0.5360 ss         1 ZNE      -0.001400
      5 C2           7.9670     2.5640     0.2370 c6         1 ZNE      -0.065400
      6 O2           9.5390     1.0650     1.1850 oh         1 ZNE      -0.661000
      7 C3           8.1680     1.1950     0.8710 c6         1 ZNE       0.176300
      8 O3          -7.0440    -0.0880     1.8910 oh         1 ZNE      -0.651000
      9 C4           7.7030     0.1000    -0.0920 c6         1 ZNE      -0.074200
     10 C5           6.2800     0.3190    -0.5310 ce         1 ZNE      -0.066200
     11 C6           5.3510    -0.6450    -0.4080 cf         1 ZNE      -0.163000
     12 C7           3.9390    -0.5280    -0.7180 cf         1 ZNE      -0.191000
     13 C8           3.0390    -1.5240    -0.6980 c2         1 ZNE      -0.077400
     14 C9           3.3390    -2.9670    -0.4010 c6         1 ZNE      -0.042200
     15 C10          6.0290     1.6720    -1.0610 ce         1 ZNE      -0.125200
     16 C11          2.4350    -3.5210     0.7060 c6         1 ZNE      -0.071400
     17 C12          0.9520    -3.2370     0.4640 c6         1 ZNE      -0.063400
     18 C13          0.6900    -1.7500     0.2100 c5         1 ZNE      -0.035000
     19 C14          1.5850    -1.3180    -0.9800 c5         1 ZNE      -0.036500
     20 C15          1.0480     0.0480    -1.3770 c5         1 ZNE      -0.070400
     21 C16         -0.4680    -0.0770    -1.1360 c5         1 ZNE      -0.077400
     22 C17         -0.7070    -1.3990    -0.3580 c5         1 ZNE      -0.052700
     23 C18          1.0000    -0.9190     1.4580 c3         1 ZNE      -0.079100
     24 C19          5.4500     1.9210    -2.2340 c2         1 ZNE      -0.295000
     25 C20         -1.8890    -1.2940     0.6130 c3         1 ZNE      -0.047700
     26 C21         -2.0890    -2.5480     1.4610 c3         1 ZNE      -0.087100
     27 C22         -3.1840    -0.9700    -0.1480 c3         1 ZNE      -0.077400
     28 C23         -4.2840    -0.3820     0.7300 c3         1 ZNE      -0.074400
     29 C24         -5.5560    -0.0950    -0.0590 c3         1 ZNE      -0.105400
     30 C25         -6.6140     0.6330     0.7610 c3         1 ZNE       0.136000
     31 C26         -7.8040     1.0140    -0.0780 cd         1 ZNE       0.385700
     32 C27         -9.0270     1.8160    -1.7120 cc         1 ZNE       0.274900
     33 C31        -10.0400     1.4330    -0.8930 cd         1 ZNE      -0.278000
     34 H1           6.4580     3.7390    -0.7330 h1         1 ZNE       0.036700
     35 HO1          4.8190     2.9360     0.7540 ho         1 ZNE       0.444000
     36 H2           8.5950     2.6420    -0.6560 hc         1 ZNE       0.062200
     37 H2A          8.2840     3.3530     0.9240 hc         1 ZNE       0.062200
     38 HO2          9.6570     0.2480     1.6780 ho         1 ZNE       0.441000
     39 H3           7.5600     1.1320     1.7830 h1         1 ZNE       0.049700
     40 H4           8.3640     0.1230    -0.9680 hc         1 ZNE       0.051700
     41 H4A          7.8100    -0.8850     0.3700 hc         1 ZNE       0.051700
     42 H6           5.6920    -1.5930    -0.0030 ha         1 ZNE       0.169000
     43 H7           3.5900     0.4650    -0.9790 ha         1 ZNE       0.174000
     44 H9           3.1610    -3.5460    -1.3170 hc         1 ZNE       0.046200
     45 H9A          4.3840    -3.1310    -0.1390 hc         1 ZNE       0.046200
     46 H11          2.5910    -4.5990     0.7900 hc         1 ZNE       0.041200
     47 H11A         2.7410    -3.0960     1.6650 hc         1 ZNE       0.041200
     48 H12          0.6100    -3.8040    -0.4100 hc         1 ZNE       0.040700
     49 H12A         0.3780    -3.6080     1.3140 hc         1 ZNE       0.040700
     50 H14          1.3280    -2.0130    -1.7960 hc         1 ZNE       0.052700
     51 H15          1.4720     0.8390    -0.7540 hc         1 ZNE       0.043700
     52 H15A         1.2920     0.2990    -2.4100 hc         1 ZNE       0.043700
     53 H16         -0.8400     0.7760    -0.5610 hc         1 ZNE       0.041700
     54 H16A        -1.0200    -0.0720    -2.0760 hc         1 ZNE       0.041700
     55 H17         -0.9440    -2.1890    -1.0850 hc         1 ZNE       0.044700
     56 H18          2.0490    -0.9950     1.7480 hc         1 ZNE       0.034700
     57 H18A         0.7840     0.1410     1.3150 hc         1 ZNE       0.034700
     58 H18B         0.4060    -1.2540     2.3100 hc         1 ZNE       0.034700
     59 H19          5.3070     2.9360    -2.5850 ha         1 ZNE       0.168500
     60 H19A         5.1130     1.1260    -2.8880 ha         1 ZNE       0.168500
     61 H20         -1.6890    -0.4530     1.2900 hc         1 ZNE       0.048700
     62 H21         -3.0260    -2.5050     2.0190 hc         1 ZNE       0.032700
     63 H21A        -2.1220    -3.4450     0.8380 hc         1 ZNE       0.032700
     64 H21B        -1.2980    -2.6850     2.1970 hc         1 ZNE       0.032700
     65 H22         -2.9850    -0.2570    -0.9520 hc         1 ZNE       0.040200
     66 H22A        -3.5470    -1.8810    -0.6390 hc         1 ZNE       0.040200
     67 H23         -4.5090    -1.0500     1.5640 hc         1 ZNE       0.043700
     68 H23A        -3.9200     0.5510     1.1750 hc         1 ZNE       0.043700
     69 H24         -5.3180     0.5190    -0.9310 hc         1 ZNE       0.058200
     70 H24A        -5.9790    -1.0280    -0.4510 hc         1 ZNE       0.058200
     71 H25         -6.1760     1.5600     1.1470 h1         1 ZNE       0.093700
     72 H27         -9.1580     2.2820    -2.6790 h4         1 ZNE       0.041100
     73 H31        -11.1020     1.5180    -1.0600 h4         1 ZNE       0.161000
     74 HO3         -7.1860    -1.0080     1.6370 ho         1 ZNE       0.447000
@<TRIPOS>BOND
     1     1     3 1   
     2     1     5 1   
     3     1    15 1   
     4     1    34 1   
     5     2    31 2   
     6     2    32 1   
     7     3    35 1   
     8     4    31 1   
     9     4    33 1   
    10     5     7 1   
    11     5    36 1   
    12     5    37 1   
    13     6     7 1   
    14     6    38 1   
    15     7     9 1   
    16     7    39 1   
    17     8    30 1   
    18     8    74 1   
    19     9    10 1   
    20     9    40 1   
    21     9    41 1   
    22    10    11 2   
    23    10    15 1   
    24    11    12 1   
    25    11    42 1   
    26    12    13 2   
    27    12    43 1   
    28    13    14 1   
    29    13    19 1   
    30    14    16 1   
    31    14    44 1   
    32    14    45 1   
    33    15    24 2   
    34    16    17 1   
    35    16    46 1   
    36    16    47 1   
    37    17    18 1   
    38    17    48 1   
    39    17    49 1   
    40    18    19 1   
    41    18    22 1   
    42    18    23 1   
    43    19    20 1   
    44    19    50 1   
    45    20    21 1   
    46    20    51 1   
    47    20    52 1   
    48    21    22 1   
    49    21    53 1   
    50    21    54 1   
    51    22    25 1   
    52    22    55 1   
    53    23    56 1   
    54    23    57 1   
    55    23    58 1   
    56    24    59 1   
    57    24    60 1   
    58    25    26 1   
    59    25    27 1   
    60    25    61 1   
    61    26    62 1   
    62    26    63 1   
    63    26    64 1   
    64    27    28 1   
    65    27    65 1   
    66    27    66 1   
    67    28    29 1   
    68    28    67 1   
    69    28    68 1   
    70    29    30 1   
    71    29    69 1   
    72    29    70 1   
    73    30    31 1   
    74    30    71 1   
    75    32    33 2   
    76    32    72 1   
    77    33    73 1   
@<TRIPOS>SUBSTRUCTURE
     1 ZNE         1 TEMP              0 ****  ****    0 ROOT
