@<TRIPOS>MOLECULE
ZNF
   56    58     1     0     0
SMALL
No Charge or Current Charge


@<TRIPOS>ATOM
      1 C10         -1.8820    16.9460   -13.2100 c6         1 ZNF      -0.156700
      2 C11         -3.2660    16.8530   -13.8820 c          1 ZNF       0.608100
      3 N13         -3.3870    15.8590   -14.8450 ns         1 ZNF      -0.150000
      4 C14         -4.4700    15.4500   -15.6690 ca         1 ZNF       0.010000
      5 C16         -6.7630    15.5990   -16.5000 ca         1 ZNF       0.208000
      6 C20         -5.2700    13.9050   -17.3920 ca         1 ZNF      -0.048000
      7 C21         -4.2480    14.3700   -16.5450 ca         1 ZNF      -0.182000
      8 C22         -1.1370    18.2700   -13.5010 c6         1 ZNF      -0.062400
      9 C03         -1.8690    12.8140    -8.1910 c6         1 ZNF       0.167000
     10 C04         -1.7100    12.2190    -6.7610 c3         1 ZNF      -0.090600
     11 C05         -0.9110    14.0390    -8.3250 c6         1 ZNF       0.097000
     12 C07         -0.3870    15.9720    -9.8230 c          1 ZNF       0.655100
     13 C09         -1.9300    16.5870   -11.7080 c6         1 ZNF       0.103000
     14 C15         -5.7430    16.0640   -15.6540 ca         1 ZNF      -0.172000
     15 C18         -6.5320    14.5190   -17.3720 ca         1 ZNF       0.043000
     16 C23          0.2570    18.2320   -12.8430 c6         1 ZNF      -0.088400
     17 C26          0.1700    17.8920   -11.3350 c6         1 ZNF       0.099000
     18 C28         -0.8030    13.6760   -10.7620 c6         1 ZNF       0.097000
     19 C29         -1.7830    12.4730   -10.6300 c6         1 ZNF       0.167000
     20 C30         -1.5480    11.5100   -11.8300 c3         1 ZNF      -0.090600
     21 F17         -7.9740    16.2020   -16.4690 f          1 ZNF      -0.160000
     22 N02         -1.6650    11.8060    -9.2880 n3         1 ZNF      -0.715600
     23 N06         -0.9210    14.6780    -9.6650 n          1 ZNF      -0.420800
     24 N08         -0.5870    16.6370   -11.0520 n          1 ZNF      -0.424800
     25 O12         -4.1700    17.6150   -13.5610 o          1 ZNF      -0.563100
     26 O27          0.2360    16.5070    -8.9160 o          1 ZNF      -0.621100
     27 Cl1         -7.8050    13.9260   -18.4390 cl         1 ZNF      -0.173000
     28 H1          -1.2770    16.1560   -13.6770 hc         1 ZNF       0.063700
     29 H2          -2.5430    15.3200   -14.9890 hn         1 ZNF       0.151000
     30 H3          -5.0840    13.0690   -18.0630 ha         1 ZNF       0.132000
     31 H4          -3.2750    13.8840   -16.5710 ha         1 ZNF       0.117000
     32 H5          -1.0390    18.4270   -14.5840 hc         1 ZNF       0.060200
     33 H6          -1.7120    19.1200   -13.1060 hc         1 ZNF       0.060200
     34 H7          -2.4050    10.1110    -8.1920 h1         1 ZNF       0.034033
     35 H8          -3.6110    10.9080    -9.2310 h1         1 ZNF       0.034033
     36 H9          -2.3440     9.8680    -9.9240 h1         1 ZNF       0.034033
     37 H10         -2.8950    13.2040    -8.2580 h1         1 ZNF       0.027200
     38 H12         -0.7560    11.6890    -6.6540 hc         1 ZNF       0.041867
     39 H13         -1.7390    13.0080    -6.0010 hc         1 ZNF       0.041867
     40 H14          0.1160    13.7160    -8.1010 h1         1 ZNF       0.054950
     41 H15         -1.1890    14.7860    -7.5670 h1         1 ZNF       0.054950
     42 H16         -2.5810    17.3110   -11.1960 h1         1 ZNF       0.057200
     43 H17         -2.4100    15.6080   -11.5790 h1         1 ZNF       0.057200
     44 H18         -5.9670    16.8990   -15.0000 ha         1 ZNF       0.171000
     45 H19          0.8810    17.4810   -13.3470 hc         1 ZNF       0.052200
     46 H20          0.7620    19.1970   -12.9780 hc         1 ZNF       0.052200
     47 H21          1.1910    17.8030   -10.9370 h1         1 ZNF       0.057700
     48 H22         -0.3150    18.7230   -10.8030 h1         1 ZNF       0.057700
     49 H23         -0.9320    14.1430   -11.7450 h1         1 ZNF       0.054950
     50 H24          0.2250    13.2850   -10.7480 h1         1 ZNF       0.054950
     51 H25         -2.8020    12.8730   -10.7410 h1         1 ZNF       0.027200
     52 H26         -2.3520    10.7720   -11.9280 hc         1 ZNF       0.041867
     53 H27         -1.5160    12.0610   -12.7780 hc         1 ZNF       0.041867
     54 H28         -0.5980    10.9700   -11.7270 hc         1 ZNF       0.041867
     55 H11         -2.5190    11.5220    -6.5150 hc         1 ZNF       0.041867
     56 C01         -2.5550    10.6180    -9.1530 c3         1 ZNF       0.148100
@<TRIPOS>BOND
     1     1     2 1   
     2     1     8 1   
     3     1    13 1   
     4     1    28 1   
     5     2     3 1   
     6     2    25 2   
     7     3     4 1   
     8     3    29 1   
     9     4     7 ar  
    10     4    14 ar  
    11     5    14 ar  
    12     5    15 ar  
    13     5    21 1   
    14     6     7 ar  
    15     6    15 ar  
    16     6    30 1   
    17     7    31 1   
    18     8    16 1   
    19     8    32 1   
    20     8    33 1   
    21     9    10 1   
    22     9    11 1   
    23     9    22 1   
    24     9    37 1   
    25    10    38 1   
    26    10    39 1   
    27    10    55 1   
    28    11    23 1   
    29    11    40 1   
    30    11    41 1   
    31    12    23 1   
    32    12    24 1   
    33    12    26 2   
    34    13    24 1   
    35    13    42 1   
    36    13    43 1   
    37    14    44 1   
    38    15    27 1   
    39    16    17 1   
    40    16    45 1   
    41    16    46 1   
    42    17    24 1   
    43    17    47 1   
    44    17    48 1   
    45    18    19 1   
    46    18    23 1   
    47    18    49 1   
    48    18    50 1   
    49    19    20 1   
    50    19    22 1   
    51    19    51 1   
    52    20    52 1   
    53    20    53 1   
    54    20    54 1   
    55    22    56 1   
    56    34    56 1   
    57    35    56 1   
    58    36    56 1   
@<TRIPOS>SUBSTRUCTURE
     1 ZNF         1 TEMP              0 ****  ****    0 ROOT
