@<TRIPOS>MOLECULE
ZNF
   56    58     1     0     0
SMALL
abcg2


@<TRIPOS>ATOM
      1 C10         -1.5500    16.9880   -13.1920 c6         1 ZNF      -0.156700
      2 C11         -2.8300    16.8410   -13.9990 c          1 ZNF       0.608100
      3 N13         -3.1360    15.5390   -14.2830 ns         1 ZNF      -0.150000
      4 C14         -4.2850    15.0030   -14.8720 ca         1 ZNF       0.010000
      5 C16         -6.4340    15.1580   -15.9100 ca         1 ZNF       0.208000
      6 C20         -5.4820    13.0040   -15.5250 ca         1 ZNF      -0.048000
      7 C21         -4.3710    13.6080   -14.9650 ca         1 ZNF      -0.182000
      8 C22         -0.8920    18.3580   -13.3440 c6         1 ZNF      -0.062400
      9 C03         -2.0810    12.8640    -8.8660 c6         1 ZNF       0.167000
     10 C04         -2.1140    12.0150    -7.5970 c3         1 ZNF      -0.090600
     11 C05         -0.9760    13.9090    -8.7200 c6         1 ZNF       0.097000
     12 C07         -0.4610    16.0300    -9.8010 c          1 ZNF       0.655100
     13 C09         -1.8730    16.7410   -11.7090 c6         1 ZNF       0.103000
     14 C15         -5.3350    15.7870   -15.3560 ca         1 ZNF      -0.172000
     15 C18         -6.5330    13.7780   -16.0050 ca         1 ZNF       0.043000
     16 C23          0.3280    18.4650   -12.4250 c6         1 ZNF      -0.088400
     17 C26         -0.0150    18.1330   -10.9730 c6         1 ZNF       0.099000
     18 C28         -0.6710    13.9250   -11.1030 c6         1 ZNF       0.097000
     19 C29         -1.7680    12.8860   -11.2880 c6         1 ZNF       0.167000
     20 C30         -1.4540    12.0650   -12.5370 c3         1 ZNF      -0.090600
     21 F17         -7.4410    15.9260   -16.3720 f          1 ZNF      -0.160000
     22 N02         -1.8770    12.0480   -10.0790 n3         1 ZNF      -0.715600
     23 N06         -0.9040    14.7310    -9.9120 n          1 ZNF      -0.420800
     24 N08         -0.6600    16.8250   -10.9060 n          1 ZNF      -0.424800
     25 O12         -3.5360    17.7900   -14.3140 o          1 ZNF      -0.563100
     26 O27          0.0740    16.4570    -8.7730 o          1 ZNF      -0.621100
     27 CL1         -7.9420    13.0440   -16.7100 cl         1 ZNF      -0.173000
     28 H1          -0.8470    16.2140   -13.5140 hc         1 ZNF       0.063700
     29 H2          -2.4600    14.8550   -13.9760 hn         1 ZNF       0.151000
     30 H3          -5.5410    11.9260   -15.5900 ha         1 ZNF       0.132000
     31 H4          -3.5610    12.9950   -14.5920 ha         1 ZNF       0.117000
     32 H5          -0.6020    18.5270   -14.3830 hc         1 ZNF       0.060200
     33 H6          -1.6200    19.1300   -13.0820 hc         1 ZNF       0.060200
     34 H7          -2.9640    10.3960    -9.3610 h1         1 ZNF       0.034033
     35 H8          -3.9290    11.5150   -10.3440 h1         1 ZNF       0.034033
     36 H9          -2.7460    10.4300   -11.0980 h1         1 ZNF       0.034033
     37 H10         -3.0380    13.4110    -8.9510 h1         1 ZNF       0.027200
     38 H12         -1.2400    11.3610    -7.5550 hc         1 ZNF       0.041867
     39 H13         -2.0960    12.6680    -6.7230 hc         1 ZNF       0.041867
     40 H14         -0.0180    13.4040    -8.5360 h1         1 ZNF       0.054950
     41 H15         -1.1930    14.5430    -7.8650 h1         1 ZNF       0.054950
     42 H16         -2.5770    17.5150   -11.3740 h1         1 ZNF       0.057200
     43 H17         -2.3520    15.7800   -11.5610 h1         1 ZNF       0.057200
     44 H18         -5.3050    16.8620   -15.3040 ha         1 ZNF       0.171000
     45 H19          1.1070    17.7770   -12.7680 hc         1 ZNF       0.052200
     46 H20          0.7420    19.4740   -12.4690 hc         1 ZNF       0.052200
     47 H21          0.8820    18.1080   -10.3600 h1         1 ZNF       0.057700
     48 H22         -0.6820    18.9010   -10.5590 h1         1 ZNF       0.057700
     49 H23         -0.6080    14.5550   -11.9820 h1         1 ZNF       0.054950
     50 H24          0.2910    13.4040   -10.9990 h1         1 ZNF       0.054950
     51 H25         -2.7190    13.4250   -11.4500 h1         1 ZNF       0.027200
     52 H26         -2.2960    11.4560   -12.8580 hc         1 ZNF       0.041867
     53 H27         -1.2040    12.7370   -13.3610 hc         1 ZNF       0.041867
     54 H28         -0.5980    11.4110   -12.3570 hc         1 ZNF       0.041867
     55 H11         -3.0090    11.4010    -7.5290 hc         1 ZNF       0.041867
     56 C01         -2.9350    11.0510   -10.2270 c3         1 ZNF       0.148100
@<TRIPOS>BOND
     1     1     2 1   
     2     1     8 1   
     3     1    13 1   
     4     1    28 1   
     5     2     3 1   
     6     2    25 2   
     7     3     4 1   
     8     3    29 1   
     9     4     7 ar  
    10     4    14 ar  
    11     5    14 ar  
    12     5    15 ar  
    13     5    21 1   
    14     6     7 ar  
    15     6    15 ar  
    16     6    30 1   
    17     7    31 1   
    18     8    16 1   
    19     8    32 1   
    20     8    33 1   
    21     9    10 1   
    22     9    11 1   
    23     9    22 1   
    24     9    37 1   
    25    10    38 1   
    26    10    39 1   
    27    10    55 1   
    28    11    23 1   
    29    11    40 1   
    30    11    41 1   
    31    12    23 1   
    32    12    24 1   
    33    12    26 2   
    34    13    24 1   
    35    13    42 1   
    36    13    43 1   
    37    14    44 1   
    38    15    27 1   
    39    16    17 1   
    40    16    45 1   
    41    16    46 1   
    42    17    24 1   
    43    17    47 1   
    44    17    48 1   
    45    18    19 1   
    46    18    23 1   
    47    18    49 1   
    48    18    50 1   
    49    19    20 1   
    50    19    22 1   
    51    19    51 1   
    52    20    52 1   
    53    20    53 1   
    54    20    54 1   
    55    22    56 1   
    56    34    56 1   
    57    35    56 1   
    58    36    56 1   
@<TRIPOS>SUBSTRUCTURE
     1 ZNF         1 TEMP              0 ****  ****    0 ROOT
