@<TRIPOS>MOLECULE
ZNL
   61    64     1     0     0
SMALL
abcg2


@<TRIPOS>ATOM
      1 C16        -11.0240   -24.4180    13.1140 cc         1 ZNL       0.476400
      2 C12         -8.0700   -25.5150     8.1510 ce         1 ZNL      -0.290200
      3 C11         -8.9850   -24.7450     9.0400 c          1 ZNL       0.589300
      4 C15        -11.1710   -23.8960     9.5630 c3         1 ZNL       0.088000
      5 C13         -6.9880   -26.1040     8.6470 c2         1 ZNL      -0.245000
      6 C01        -13.9090   -22.3030    10.3030 c3         1 ZNL      -0.042800
      7 C02        -13.5750   -22.2750    11.7660 ca         1 ZNL      -0.079300
      8 C03        -12.6030   -23.0610    12.4090 ca         1 ZNL      -0.059200
      9 C05        -11.6320   -24.7820    10.7350 c3         1 ZNL       0.070300
     10 C06        -12.8770   -25.6430    10.4780 c3         1 ZNL      -0.091400
     11 C07        -13.0670   -26.0870     9.0280 c3         1 ZNL      -0.071400
     12 C08        -11.8160   -26.5900     8.3060 c3         1 ZNL      -0.102400
     13 C09        -10.9480   -25.4860     7.7010 c3         1 ZNL       0.101000
     14 C18         -8.7240   -25.1280    13.1530 c          1 ZNL       0.654700
     15 C19         -7.8010   -26.2580    12.9040 cc         1 ZNL      -0.155600
     16 C20         -8.0940   -27.4080    12.2220 cd         1 ZNL      -0.224000
     17 C22         -5.7340   -27.2970    12.9250 cd         1 ZNL      -0.084400
     18 C24         -3.3380   -27.1840    12.3630 c          1 ZNL       0.613300
     19 C25         -3.6710   -26.3590    11.1750 ce         1 ZNL      -0.298200
     20 C26         -2.7290   -25.9730    10.3200 c2         1 ZNL      -0.230000
     21 C28         -6.4370   -26.1990    13.3040 cc         1 ZNL      -0.077000
     22 C31        -12.3130   -22.8860    13.7790 ca         1 ZNL       0.073400
     23 C32        -12.9860   -21.9460    14.5560 ca         1 ZNL      -0.048000
     24 C33        -13.9560   -21.1880    13.9370 ca         1 ZNL      -0.132000
     25 C34        -14.2310   -21.3560    12.5750 ca         1 ZNL      -0.099000
     26 N04        -11.7400   -24.0670    12.0020 na         1 ZNL      -0.186600
     27 N10        -10.2890   -24.6430     8.6840 n          1 ZNL      -0.404800
     28 N17        -10.0550   -25.4150    13.0570 ns         1 ZNL      -0.435400
     29 N23         -4.3860   -27.5720    13.1490 ns         1 ZNL      -0.405100
     30 N30        -11.3300   -23.7510    14.1800 nd         1 ZNL      -0.551100
     31 O14         -8.5540   -24.2080    10.0540 o          1 ZNL      -0.583100
     32 O27         -2.1990   -27.5100    12.6450 o          1 ZNL      -0.584100
     33 O29         -8.3100   -24.0200    13.4210 o          1 ZNL      -0.528100
     34 S21         -6.7350   -28.4180    12.0600 ss         1 ZNL       0.200000
     35 H1          -8.2750   -25.5780     7.0900 ha         1 ZNL       0.184000
     36 H2         -10.6490   -23.0190     9.9400 h1         1 ZNL       0.076700
     37 H3         -12.0050   -23.5450     8.9590 h1         1 ZNL       0.076700
     38 H4          -6.3090   -26.6540     8.0110 ha         1 ZNL       0.174000
     39 H5          -6.7520   -26.0690     9.7030 ha         1 ZNL       0.174000
     40 H6         -14.1050   -23.3020     9.9190 hc         1 ZNL       0.039700
     41 H7         -14.8010   -21.7080    10.1160 hc         1 ZNL       0.039700
     42 H8         -13.1060   -21.8710     9.7040 hc         1 ZNL       0.039700
     43 H9         -10.8060   -25.4720    10.8960 h1         1 ZNL       0.065700
     44 H10        -13.7790   -25.1210    10.8020 hc         1 ZNL       0.052700
     45 H11        -12.8030   -26.5230    11.1210 hc         1 ZNL       0.052700
     46 H12        -13.5060   -25.2720     8.4430 hc         1 ZNL       0.044700
     47 H13        -13.8170   -26.8790     9.0300 hc         1 ZNL       0.044700
     48 H14        -12.1270   -27.2260     7.4740 hc         1 ZNL       0.048200
     49 H15        -11.2100   -27.2200     8.9640 hc         1 ZNL       0.048200
     50 H16        -11.5700   -24.8490     7.0660 h1         1 ZNL       0.053200
     51 H17        -10.2060   -25.9390     7.0500 h1         1 ZNL       0.053200
     52 H18         -9.0330   -27.7060    11.7790 h4         1 ZNL       0.147000
     53 H19         -4.7000   -26.0700    11.0080 ha         1 ZNL       0.190000
     54 H20         -2.9780   -25.3740     9.4550 ha         1 ZNL       0.176500
     55 H21         -1.6880   -26.2380    10.4510 ha         1 ZNL       0.176500
     56 H22         -5.9970   -25.3760    13.8490 ha         1 ZNL       0.168000
     57 H23        -12.7490   -21.8280    15.6050 ha         1 ZNL       0.132000
     58 H24        -14.5090   -20.4480    14.5010 ha         1 ZNL       0.115000
     59 H25        -14.9900   -20.7300    12.1220 ha         1 ZNL       0.108000
     60 H26        -10.3600   -26.3710    12.9450 hn         1 ZNL       0.329500
     61 H27         -4.1490   -28.1590    13.9380 hn         1 ZNL       0.331500
@<TRIPOS>BOND
     1     1    26 1   
     2     1    28 1   
     3     1    30 2   
     4     2     3 1   
     5     2     5 2   
     6     2    35 1   
     7     3    27 1   
     8     3    31 2   
     9     4     9 1   
    10     4    27 1   
    11     4    36 1   
    12     4    37 1   
    13     5    38 1   
    14     5    39 1   
    15     6     7 1   
    16     6    40 1   
    17     6    41 1   
    18     6    42 1   
    19     7     8 ar  
    20     7    25 ar  
    21     8    22 ar  
    22     8    26 1   
    23     9    10 1   
    24     9    26 1   
    25     9    43 1   
    26    10    11 1   
    27    10    44 1   
    28    10    45 1   
    29    11    12 1   
    30    11    46 1   
    31    11    47 1   
    32    12    13 1   
    33    12    48 1   
    34    12    49 1   
    35    13    27 1   
    36    13    50 1   
    37    13    51 1   
    38    14    15 1   
    39    14    28 1   
    40    14    33 2   
    41    15    16 2   
    42    15    21 1   
    43    16    34 1   
    44    16    52 1   
    45    17    21 2   
    46    17    29 1   
    47    17    34 1   
    48    18    19 1   
    49    18    29 1   
    50    18    32 2   
    51    19    20 2   
    52    19    53 1   
    53    20    54 1   
    54    20    55 1   
    55    21    56 1   
    56    22    23 ar  
    57    22    30 1   
    58    23    24 ar  
    59    23    57 1   
    60    24    25 ar  
    61    24    58 1   
    62    25    59 1   
    63    28    60 1   
    64    29    61 1   
@<TRIPOS>SUBSTRUCTURE
     1 ZNL         1 TEMP              0 ****  ****    0 ROOT
