@<TRIPOS>MOLECULE
ZNL
   61    64     1     0     0
SMALL
No Charge or Current Charge


@<TRIPOS>ATOM
      1 C16        -10.2260   -23.7890    12.3240 cc         1 ZNL       0.476400
      2 C12         -9.2510   -26.3570     6.9110 ce         1 ZNL      -0.290200
      3 C11         -9.8080   -25.3800     7.9000 c          1 ZNL       0.589300
      4 C15        -11.7550   -24.3220     9.0690 c3         1 ZNL       0.088000
      5 C13         -7.9930   -26.8610     6.9730 c2         1 ZNL      -0.245000
      6 C01        -14.0230   -22.2850    10.2740 c3         1 ZNL      -0.042800
      7 C02        -13.3890   -22.1160    11.6500 ca         1 ZNL      -0.079300
      8 C03        -12.2000   -22.7670    12.0810 ca         1 ZNL      -0.059200
      9 C05        -11.7820   -24.7710    10.5460 c3         1 ZNL       0.070300
     10 C06        -13.0230   -25.5950    10.9870 c3         1 ZNL      -0.091400
     11 C07        -13.6910   -26.4630     9.8890 c3         1 ZNL      -0.071400
     12 C08        -12.7240   -27.2670     8.9820 c3         1 ZNL      -0.102400
     13 C09        -12.1250   -26.4690     7.7960 c3         1 ZNL       0.101000
     14 C18         -8.0020   -24.8040    12.7780 c          1 ZNL       0.654700
     15 C19         -7.0750   -25.7920    12.1550 cc         1 ZNL      -0.155600
     16 C20         -7.3110   -26.4830    10.9810 cd         1 ZNL      -0.224000
     17 C22         -5.1010   -27.0560    12.0340 cd         1 ZNL      -0.084400
     18 C24         -2.8790   -27.1280    13.2330 c          1 ZNL       0.613300
     19 C25         -2.9160   -25.6890    13.6360 ce         1 ZNL      -0.298200
     20 C26         -2.3920   -25.2070    14.7910 c2         1 ZNL      -0.230000
     21 C28         -5.8270   -26.1360    12.7500 cc         1 ZNL      -0.077000
     22 C31        -11.5830   -22.4090    13.2570 ca         1 ZNL       0.073400
     23 C32        -12.1510   -21.4770    14.1340 ca         1 ZNL      -0.048000
     24 C33        -13.3690   -20.8740    13.7750 ca         1 ZNL      -0.132000
     25 C34        -13.9700   -21.1790    12.5370 ca         1 ZNL      -0.099000
     26 N04        -11.3670   -23.7170    11.5120 na         1 ZNL      -0.186600
     27 N10        -11.1950   -25.3810     8.1960 n          1 ZNL      -0.404800
     28 N17         -9.1440   -24.5930    12.0430 ns         1 ZNL      -0.435400
     29 N23         -3.8770   -27.6090    12.4070 ns         1 ZNL      -0.405100
     30 N30        -10.3540   -23.0320    13.4200 nd         1 ZNL      -0.551100
     31 O14         -9.0530   -24.6370     8.5120 o          1 ZNL      -0.583100
     32 O27         -2.0130   -27.8860    13.6420 o          1 ZNL      -0.584100
     33 O29         -7.7610   -24.2470    13.8410 o          1 ZNL      -0.528100
     34 S21         -5.9920   -27.6070    10.6040 ss         1 ZNL       0.200000
     35 H1          -9.9290   -26.7150     6.1410 ha         1 ZNL       0.184000
     36 H2         -11.1520   -23.4090     8.9710 h1         1 ZNL       0.076700
     37 H3         -12.7640   -24.0790     8.7220 h1         1 ZNL       0.076700
     38 H4          -7.6330   -27.5950     6.2500 ha         1 ZNL       0.174000
     39 H5          -7.2840   -26.5510     7.7430 ha         1 ZNL       0.174000
     40 H6         -14.4150   -23.2920    10.1100 hc         1 ZNL       0.039700
     41 H7         -14.8680   -21.6000    10.1370 hc         1 ZNL       0.039700
     42 H8         -13.3030   -22.0460     9.4840 hc         1 ZNL       0.039700
     43 H9         -10.9770   -25.5140    10.5920 h1         1 ZNL       0.065700
     44 H10        -13.7860   -24.9460    11.4270 hc         1 ZNL       0.052700
     45 H11        -12.7080   -26.2550    11.8050 hc         1 ZNL       0.052700
     46 H12        -14.3310   -25.8310     9.2600 hc         1 ZNL       0.044700
     47 H13        -14.3680   -27.1690    10.3870 hc         1 ZNL       0.044700
     48 H14        -13.2820   -28.1120     8.5600 hc         1 ZNL       0.048200
     49 H15        -11.9160   -27.7030     9.5840 hc         1 ZNL       0.048200
     50 H16        -12.9430   -26.0290     7.2100 h1         1 ZNL       0.053200
     51 H17        -11.6300   -27.1960     7.1470 h1         1 ZNL       0.053200
     52 H18         -8.1660   -26.4440    10.3180 h4         1 ZNL       0.147000
     53 H19         -3.4560   -25.0240    12.9660 ha         1 ZNL       0.190000
     54 H20         -2.4690   -24.1520    15.0600 ha         1 ZNL       0.176500
     55 H21         -1.8710   -25.8520    15.5020 ha         1 ZNL       0.176500
     56 H22         -5.5210   -25.7110    13.7010 ha         1 ZNL       0.168000
     57 H23        -11.6520   -21.2160    15.0640 ha         1 ZNL       0.132000
     58 H24        -13.8280   -20.1440    14.4370 ha         1 ZNL       0.115000
     59 H25        -14.8860   -20.6610    12.2580 ha         1 ZNL       0.108000
     60 H26         -9.1630   -25.0890    11.1670 hn         1 ZNL       0.329500
     61 H27         -3.6340   -28.5160    12.0250 hn         1 ZNL       0.331500
@<TRIPOS>BOND
     1     1    26 1   
     2     1    28 1   
     3     1    30 2   
     4     2     3 1   
     5     2     5 2   
     6     2    35 1   
     7     3    27 1   
     8     3    31 2   
     9     4     9 1   
    10     4    27 1   
    11     4    36 1   
    12     4    37 1   
    13     5    38 1   
    14     5    39 1   
    15     6     7 1   
    16     6    40 1   
    17     6    41 1   
    18     6    42 1   
    19     7     8 ar  
    20     7    25 ar  
    21     8    22 ar  
    22     8    26 1   
    23     9    10 1   
    24     9    26 1   
    25     9    43 1   
    26    10    11 1   
    27    10    44 1   
    28    10    45 1   
    29    11    12 1   
    30    11    46 1   
    31    11    47 1   
    32    12    13 1   
    33    12    48 1   
    34    12    49 1   
    35    13    27 1   
    36    13    50 1   
    37    13    51 1   
    38    14    15 1   
    39    14    28 1   
    40    14    33 2   
    41    15    16 2   
    42    15    21 1   
    43    16    34 1   
    44    16    52 1   
    45    17    21 2   
    46    17    29 1   
    47    17    34 1   
    48    18    19 1   
    49    18    29 1   
    50    18    32 2   
    51    19    20 2   
    52    19    53 1   
    53    20    54 1   
    54    20    55 1   
    55    21    56 1   
    56    22    23 ar  
    57    22    30 1   
    58    23    24 ar  
    59    23    57 1   
    60    24    25 ar  
    61    24    58 1   
    62    25    59 1   
    63    28    60 1   
    64    29    61 1   
@<TRIPOS>SUBSTRUCTURE
     1 ZNL         1 TEMP              0 ****  ****    0 ROOT
