@<TRIPOS>MOLECULE
ZNM
   68    72     1     0     0
SMALL
bcc


@<TRIPOS>ATOM
      1 C4         -64.6610    21.2720   -86.1830 c6         1 ZNM       0.006800
      2 C14        -66.7590    22.4580   -85.5690 cc         1 ZNM      -0.067300
      3 C5         -65.4860    22.5030   -86.0470 cd         1 ZNM      -0.115400
      4 C6         -65.2060    23.8750   -86.3350 ca         1 ZNM      -0.088800
      5 C11        -66.3710    24.6060   -86.0010 ca         1 ZNM      -0.040200
      6 C7         -64.0950    24.5590   -86.8390 ca         1 ZNM      -0.077000
      7 C8         -64.1670    25.9310   -86.9960 ca         1 ZNM      -0.163000
      8 C9         -65.3320    26.6370   -86.6600 ca         1 ZNM      -0.111000
      9 C10        -66.4470    25.9880   -86.1590 ca         1 ZNM      -0.149000
     10 C2         -65.2510    20.1800   -85.2900 c6         1 ZNM       0.198500
     11 N12        -67.2960    23.7150   -85.5340 na         1 ZNM      -0.164400
     12 C15        -67.4780    21.2250   -85.1230 c6         1 ZNM       0.339000
     13 N17        -66.6920    20.0640   -85.5460 n3         1 ZNM      -0.735600
     14 C18        -67.2380    18.7890   -85.1350 c3         1 ZNM       0.140800
     15 C19        -67.4740    17.8610   -86.3140 c3         1 ZNM       0.427600
     16 C20        -67.9170    16.4580   -85.9430 c3         1 ZNM       0.084400
     17 O21        -66.8810    15.8470   -85.2210 oh         1 ZNM      -0.585800
     18 F22        -68.4320    18.3840   -87.1380 f          1 ZNM      -0.234300
     19 F23        -66.3410    17.7880   -87.0780 f          1 ZNM      -0.234300
     20 C24        -68.8810    21.1790   -85.6770 ca         1 ZNM      -0.248300
     21 C25        -69.1540    21.2590   -87.0360 ca         1 ZNM       0.229400
     22 C26        -70.4140    21.1840   -87.5880 ca         1 ZNM      -0.280500
     23 C27        -71.5200    21.0110   -86.7430 ca         1 ZNM       0.241600
     24 C28        -71.2960    20.9360   -85.3610 ca         1 ZNM      -0.280500
     25 C29        -70.0100    21.0200   -84.8820 ca         1 ZNM       0.229400
     26 F30        -69.8430    20.9260   -83.5530 f          1 ZNM      -0.128400
     27 N31        -72.7930    20.9350   -87.2270 nu         1 ZNM      -0.741600
     28 C32        -73.0720    20.6960   -88.6110 cy         1 ZNM       0.186500
     29 C33        -72.7660    19.3150   -89.2300 cy         1 ZNM       0.126800
     30 N34        -74.0720    19.3640   -89.8870 nq         1 ZNM      -0.706600
     31 C35        -74.5350    20.3980   -88.9580 cy         1 ZNM       0.126800
     32 C36        -74.8220    18.1360   -89.9680 c3         1 ZNM       0.168800
     33 C37        -76.1500    18.3380   -90.6810 c3         1 ZNM      -0.111400
     34 C38        -76.9970    17.0910   -90.7240 c3         1 ZNM       0.165900
     35 F39        -76.3250    16.0610   -91.3880 f          1 ZNM      -0.254300
     36 F40        -68.1260    21.4290   -87.8740 f          1 ZNM      -0.128400
     37 H1         -64.6440    20.9250   -87.2210 hc         1 ZNM       0.057200
     38 H2         -63.6210    21.4560   -85.9000 hc         1 ZNM       0.057200
     39 H3         -63.1910    24.0220   -87.1030 ha         1 ZNM       0.131000
     40 H4         -63.3140    26.4720   -87.3860 ha         1 ZNM       0.126000
     41 H5         -65.3600    27.7110   -86.7940 ha         1 ZNM       0.125000
     42 H6         -67.3440    26.5360   -85.8980 ha         1 ZNM       0.129000
     43 H10        -64.8110    19.2300   -85.5970 h1         1 ZNM       0.068700
     44 H11        -68.2280    23.9470   -85.2310 hn         1 ZNM       0.300700
     45 H12        -67.5580    21.2700   -84.0250 h1         1 ZNM       0.046700
     46 H14        -66.5830    18.2770   -84.4230 h1         1 ZNM       0.060200
     47 H15        -68.1930    18.9010   -84.6160 h1         1 ZNM       0.060200
     48 H16        -68.8440    16.5380   -85.3610 h1         1 ZNM       0.042200
     49 H17        -68.1600    15.9140   -86.8650 h1         1 ZNM       0.042200
     50 H18        -67.1990    15.0000   -84.8960 ho         1 ZNM       0.413000
     51 H19        -70.5200    21.2480   -88.6620 ha         1 ZNM       0.155000
     52 H20        -72.1210    20.8030   -84.6720 ha         1 ZNM       0.155000
     53 H21        -73.4790    20.5790   -86.5800 hn         1 ZNM       0.418800
     54 H22        -72.6740    21.5080   -89.2220 h1         1 ZNM       0.091700
     55 H23        -72.6920    18.5430   -88.4510 h1         1 ZNM       0.055450
     56 H24        -71.9090    19.2240   -89.9020 h1         1 ZNM       0.055450
     57 H26        -75.1300    21.2020   -89.3950 h1         1 ZNM       0.055450
     58 H27        -75.0800    19.9900   -88.0930 h1         1 ZNM       0.055450
     59 H28        -75.0050    17.7090   -88.9650 h1         1 ZNM       0.039200
     60 H29        -74.2160    17.4080   -90.5130 h1         1 ZNM       0.039200
     61 H30        -75.9770    18.7160   -91.6920 hc         1 ZNM       0.058700
     62 H31        -76.7400    19.0990   -90.1610 hc         1 ZNM       0.058700
     63 H32        -77.9350    17.2720   -91.2510 h1         1 ZNM       0.042200
     64 H33        -77.2270    16.7380   -89.7160 h1         1 ZNM       0.042200
     65 C1         -64.8940    20.3980   -83.8190 c3         1 ZNM      -0.126100
     66 H7         -65.3610    19.6490   -83.1750 hc         1 ZNM       0.039033
     67 H8         -63.8160    20.3140   -83.6810 hc         1 ZNM       0.039033
     68 H9         -65.1950    21.3820   -83.4570 hc         1 ZNM       0.039033
@<TRIPOS>BOND
     1     1     3 1   
     2     1    10 1   
     3     1    37 1   
     4     1    38 1   
     5     2     3 2   
     6     2    11 1   
     7     2    12 1   
     8     3     4 1   
     9     4     5 ar  
    10     4     6 ar  
    11     5     9 ar  
    12     5    11 1   
    13     6     7 ar  
    14     6    39 1   
    15     7     8 ar  
    16     7    40 1   
    17     8     9 ar  
    18     8    41 1   
    19     9    42 1   
    20    10    13 1   
    21    10    43 1   
    22    10    65 1   
    23    11    44 1   
    24    12    13 1   
    25    12    20 1   
    26    12    45 1   
    27    13    14 1   
    28    14    15 1   
    29    14    46 1   
    30    14    47 1   
    31    15    16 1   
    32    15    18 1   
    33    15    19 1   
    34    16    17 1   
    35    16    48 1   
    36    16    49 1   
    37    17    50 1   
    38    20    21 ar  
    39    20    25 ar  
    40    21    22 ar  
    41    21    36 1   
    42    22    23 ar  
    43    22    51 1   
    44    23    24 ar  
    45    23    27 1   
    46    24    25 ar  
    47    24    52 1   
    48    25    26 1   
    49    27    28 1   
    50    27    53 1   
    51    28    29 1   
    52    28    31 1   
    53    28    54 1   
    54    29    30 1   
    55    29    55 1   
    56    29    56 1   
    57    30    31 1   
    58    30    32 1   
    59    31    57 1   
    60    31    58 1   
    61    32    33 1   
    62    32    59 1   
    63    32    60 1   
    64    33    34 1   
    65    33    61 1   
    66    33    62 1   
    67    34    35 1   
    68    34    63 1   
    69    34    64 1   
    70    65    66 1   
    71    65    67 1   
    72    65    68 1   
@<TRIPOS>SUBSTRUCTURE
     1 ZNM         1 TEMP              0 ****  ****    0 ROOT
