@<TRIPOS>MOLECULE
ZNM
   68    72     1     0     0
SMALL
No Charge or Current Charge


@<TRIPOS>ATOM
      1 C4         -64.6320    21.4560   -86.4480 c6         1 ZNM       0.006800
      2 C14        -66.7970    22.4550   -85.6790 cc         1 ZNM      -0.067300
      3 C5         -65.5450    22.6370   -86.2420 cd         1 ZNM      -0.115400
      4 C6         -65.3500    24.0330   -86.5510 ca         1 ZNM      -0.088800
      5 C11        -66.4970    24.6690   -86.1600 ca         1 ZNM      -0.040200
      6 C7         -64.2720    24.7180   -87.1250 ca         1 ZNM      -0.059000
      7 C8         -64.4040    26.1140   -87.2930 ca         1 ZNM      -0.145000
      8 C9         -65.5900    26.7780   -86.8900 ca         1 ZNM      -0.093000
      9 C10        -66.6560    26.0520   -86.3140 ca         1 ZNM      -0.131000
     10 C2         -65.0390    20.2610   -85.5330 c6         1 ZNM       0.198500
     11 N12        -67.3780    23.7400   -85.6300 na         1 ZNM      -0.214700
     12 C15        -67.3680    21.1340   -85.2010 c6         1 ZNM       0.339000
     13 N17        -66.5140    19.9770   -85.6340 n3         1 ZNM      -0.735600
     14 C18        -66.9620    18.6760   -85.0290 c3         1 ZNM       0.140800
     15 C19        -66.3140    17.3580   -85.5620 c3         1 ZNM       0.185000
     16 C20        -67.1620    16.1000   -85.2240 c3         1 ZNM       0.107600
     17 O21        -67.3420    15.9380   -83.8030 oh         1 ZNM      -0.648000
     18 F22        -66.1670    17.4270   -86.9080 f          1 ZNM      -0.113000
     19 F23        -65.0730    17.2010   -85.0390 f          1 ZNM      -0.113000
     20 C24        -68.8200    20.9750   -85.6650 ca         1 ZNM      -0.248300
     21 C25        -69.1450    20.9580   -87.0350 ca         1 ZNM       0.264500
     22 C26        -70.4720    20.8100   -87.4540 ca         1 ZNM      -0.262500
     23 C27        -71.4950    20.6740   -86.5110 ca         1 ZNM       0.380000
     24 C28        -71.1880    20.6910   -85.1500 ca         1 ZNM      -0.262500
     25 C29        -69.8620    20.8400   -84.7300 ca         1 ZNM       0.264500
     26 F30        -69.6020    20.8490   -83.4030 f          1 ZNM      -0.163500
     27 N31        -72.8210    20.5230   -86.8970 nu         1 ZNM      -0.935200
     28 C32        -73.3760    20.4270   -88.2550 cy         1 ZNM       0.186500
     29 C33        -73.1350    19.1140   -89.0890 cy         1 ZNM       0.126800
     30 N34        -74.4440    19.4430   -89.7340 nq         1 ZNM      -0.706600
     31 C35        -74.8900    20.0430   -88.4370 cy         1 ZNM       0.126800
     32 C36        -75.2240    18.4140   -90.4280 c3         1 ZNM       0.168800
     33 C37        -76.5540    18.9730   -90.9730 c3         1 ZNM      -0.111400
     34 C38        -77.4000    17.9160   -91.7070 c3         1 ZNM       0.184600
     35 F39        -76.7440    17.4650   -92.8040 f          1 ZNM      -0.273000
     36 F40        -68.1850    21.0890   -87.9780 f          1 ZNM      -0.163500
     37 H1         -64.6880    21.1340   -87.4960 hc         1 ZNM       0.057200
     38 H2         -63.5850    21.7330   -86.2690 hc         1 ZNM       0.057200
     39 H3         -63.3690    24.1960   -87.4300 ha         1 ZNM       0.113000
     40 H4         -63.5900    26.6840   -87.7360 ha         1 ZNM       0.108000
     41 H5         -65.6800    27.8530   -87.0250 ha         1 ZNM       0.107000
     42 H6         -67.5700    26.5520   -86.0010 ha         1 ZNM       0.111000
     43 H10        -64.4750    19.3990   -85.9170 h1         1 ZNM       0.068700
     44 H11        -68.3000    23.9530   -85.2650 hn         1 ZNM       0.351000
     45 H12        -67.3540    21.1690   -84.1020 h1         1 ZNM       0.046700
     46 H14        -66.8280    18.7040   -83.9400 h1         1 ZNM       0.060200
     47 H15        -68.0430    18.5650   -85.1880 h1         1 ZNM       0.060200
     48 H16        -68.1380    16.1890   -85.7210 h1         1 ZNM       0.042200
     49 H17        -66.6620    15.2160   -85.6440 h1         1 ZNM       0.042200
     50 H18        -67.8440    15.1030   -83.6640 ho         1 ZNM       0.452000
     51 H19        -70.6930    20.8030   -88.5150 ha         1 ZNM       0.137000
     52 H20        -71.9750    20.5870   -84.4100 ha         1 ZNM       0.137000
     53 H21        -73.4790    20.4470   -86.1210 hn         1 ZNM       0.474000
     54 H22        -73.1090    21.3360   -88.8120 h1         1 ZNM       0.091700
     55 H23        -73.1320    18.2020   -88.4790 h1         1 ZNM       0.055450
     56 H24        -72.2550    19.1380   -89.7410 h1         1 ZNM       0.055450
     57 H26        -75.5750    20.8960   -88.5090 h1         1 ZNM       0.055450
     58 H27        -75.2570    19.3240   -87.6940 h1         1 ZNM       0.055450
     59 H28        -75.4280    17.5860   -89.7360 h1         1 ZNM       0.039200
     60 H29        -74.6250    18.0230   -91.2620 h1         1 ZNM       0.039200
     61 H30        -76.3470    19.8060   -91.6560 hc         1 ZNM       0.058700
     62 H31        -77.1460    19.3760   -90.1440 hc         1 ZNM       0.058700
     63 H32        -78.3540    18.3550   -92.0270 h1         1 ZNM       0.042200
     64 H33        -77.6080    17.0660   -91.0440 h1         1 ZNM       0.042200
     65 C1         -64.5490    20.4780   -84.0690 c3         1 ZNM      -0.126100
     66 H7         -64.7680    19.6110   -83.4360 hc         1 ZNM       0.039033
     67 H8         -63.4640    20.6280   -84.0420 hc         1 ZNM       0.039033
     68 H9         -65.0120    21.3580   -83.6070 hc         1 ZNM       0.039033
@<TRIPOS>BOND
     1     1     3 1   
     2     1    10 1   
     3     1    37 1   
     4     1    38 1   
     5     2     3 2   
     6     2    11 1   
     7     2    12 1   
     8     3     4 1   
     9     4     5 ar  
    10     4     6 ar  
    11     5     9 ar  
    12     5    11 1   
    13     6     7 ar  
    14     6    39 1   
    15     7     8 ar  
    16     7    40 1   
    17     8     9 ar  
    18     8    41 1   
    19     9    42 1   
    20    10    13 1   
    21    10    43 1   
    22    10    65 1   
    23    11    44 1   
    24    12    13 1   
    25    12    20 1   
    26    12    45 1   
    27    13    14 1   
    28    14    15 1   
    29    14    46 1   
    30    14    47 1   
    31    15    16 1   
    32    15    18 1   
    33    15    19 1   
    34    16    17 1   
    35    16    48 1   
    36    16    49 1   
    37    17    50 1   
    38    20    21 ar  
    39    20    25 ar  
    40    21    22 ar  
    41    21    36 1   
    42    22    23 ar  
    43    22    51 1   
    44    23    24 ar  
    45    23    27 1   
    46    24    25 ar  
    47    24    52 1   
    48    25    26 1   
    49    27    28 1   
    50    27    53 1   
    51    28    29 1   
    52    28    31 1   
    53    28    54 1   
    54    29    30 1   
    55    29    55 1   
    56    29    56 1   
    57    30    31 1   
    58    30    32 1   
    59    31    57 1   
    60    31    58 1   
    61    32    33 1   
    62    32    59 1   
    63    32    60 1   
    64    33    34 1   
    65    33    61 1   
    66    33    62 1   
    67    34    35 1   
    68    34    63 1   
    69    34    64 1   
    70    65    66 1   
    71    65    67 1   
    72    65    68 1   
@<TRIPOS>SUBSTRUCTURE
     1 ZNM         1 TEMP              0 ****  ****    0 ROOT
