@<TRIPOS>MOLECULE
ZNN
   25    24     1     0     0
SMALL
abcg2


@<TRIPOS>ATOM
      1 N            5.9950    -0.3210     0.3480 n8         1 ZNN      -0.995200
      2 CA           4.8100     0.5060     0.1710 c3         1 ZNN       0.150800
      3 CB           3.5600    -0.3540     0.0610 c3         1 ZNN      -0.077400
      4 CG           2.2970     0.4770    -0.1160 c3         1 ZNN      -0.095400
      5 CD           1.0580    -0.3950    -0.2360 c3         1 ZNN       0.101000
      6 NE          -0.1280     0.4150    -0.4300 ns         1 ZNN      -0.502900
      7 CZ          -1.3640    -0.0070    -0.1500 c          1 ZNN       0.580100
      8 O           -1.6320    -1.1170     0.2810 o          1 ZNN      -0.604100
      9 CO          -2.4550     1.0400    -0.3500 c3         1 ZNN       0.075800
     10 N6          -3.7400     0.4310    -0.6410 n2         1 ZNN      -0.432200
     11 N8          -4.2690    -0.1920     0.2640 n1         1 ZNN       0.245000
     12 N9          -4.8640    -0.7750     1.0170 n1         1 ZNN      -0.045000
     13 H1           6.8180     0.2670     0.3640 hn         1 ZNN       0.393500
     14 H2           5.9590    -0.7600     1.2600 hn         1 ZNN       0.393500
     15 H4           4.6640     1.2420     0.9760 h1         1 ZNN       0.026200
     16 H5           4.9280     1.0810    -0.7510 h1         1 ZNN       0.026200
     17 H6           3.6740    -1.0440    -0.7800 hc         1 ZNN       0.051700
     18 H7           3.4650    -0.9730     0.9600 hc         1 ZNN       0.051700
     19 H8           2.1770     1.1600     0.7310 hc         1 ZNN       0.041700
     20 H9           2.3940     1.1020    -1.0100 hc         1 ZNN       0.041700
     21 H10          1.1770    -1.0990    -1.0660 h1         1 ZNN       0.056700
     22 H11          0.9330    -0.9900     0.6700 h1         1 ZNN       0.056700
     23 H12         -0.0120     1.3150    -0.8700 hn         1 ZNN       0.313500
     24 H13         -2.4970     1.6650     0.5480 h1         1 ZNN       0.072700
     25 H14         -2.2290     1.6980    -1.1870 h1         1 ZNN       0.072700
@<TRIPOS>BOND
     1     1     2 1   
     2     1    13 1   
     3     1    14 1   
     4     2     3 1   
     5     2    15 1   
     6     2    16 1   
     7     3     4 1   
     8     3    17 1   
     9     3    18 1   
    10     4     5 1   
    11     4    19 1   
    12     4    20 1   
    13     5     6 1   
    14     5    21 1   
    15     5    22 1   
    16     6     7 1   
    17     6    23 1   
    18     7     8 2   
    19     7     9 1   
    20     9    10 1   
    21     9    24 1   
    22     9    25 1   
    23    10    11 1   
    24    11    12 3   
@<TRIPOS>SUBSTRUCTURE
     1 ZNN         1 TEMP              0 ****  ****    0 ROOT
