@<TRIPOS>MOLECULE
ZNN
   25    24     1     0     0
SMALL
No Charge or Current Charge


@<TRIPOS>ATOM
      1 N            6.1030    -0.2760     0.2970 n8         1 ZNN      -0.995200
      2 CA           4.8800     0.5360     0.1580 c3         1 ZNN       0.150800
      3 CB           3.6200    -0.3500     0.0750 c3         1 ZNN      -0.077400
      4 CG           2.3190     0.4710    -0.0750 c3         1 ZNN      -0.095400
      5 CD           1.0600    -0.4130    -0.1600 c3         1 ZNN       0.101000
      6 NE          -0.1540     0.3930    -0.3010 ns         1 ZNN      -0.502900
      7 CZ          -1.4290    -0.1310    -0.3840 c          1 ZNN       0.580100
      8 O           -1.6250    -1.3410    -0.3430 o          1 ZNN      -0.604100
      9 CO          -2.5560     0.9290    -0.5290 c3         1 ZNN       0.075800
     10 N6          -3.9250     0.3670    -0.6210 n2         1 ZNN      -0.432200
     11 N8          -4.4510     0.0110     0.4470 n1         1 ZNN       0.245000
     12 N9          -5.0050    -0.4090     1.3480 n1         1 ZNN      -0.045000
     13 H1           6.9100     0.3520     0.4070 hn         1 ZNN       0.393500
     14 H2           6.0690    -0.7800     1.1910 hn         1 ZNN       0.393500
     15 H4           4.8040     1.2100     1.0230 h1         1 ZNN       0.026200
     16 H5           4.9650     1.1450    -0.7520 h1         1 ZNN       0.026200
     17 H6           3.7150    -1.0330    -0.7780 hc         1 ZNN       0.051700
     18 H7           3.5520    -0.9690     0.9780 hc         1 ZNN       0.051700
     19 H8           2.2230     1.1540     0.7780 hc         1 ZNN       0.041700
     20 H9           2.3860     1.0890    -0.9790 hc         1 ZNN       0.041700
     21 H10          1.1400    -1.0880    -1.0220 h1         1 ZNN       0.056700
     22 H11          0.9770    -1.0230     0.7500 h1         1 ZNN       0.056700
     23 H12         -0.0650     1.4020    -0.3420 hn         1 ZNN       0.313500
     24 H13         -2.4680     1.6130     0.3260 h1         1 ZNN       0.072700
     25 H14         -2.3270     1.5140    -1.4280 h1         1 ZNN       0.072700
@<TRIPOS>BOND
     1     1     2 1   
     2     1    13 1   
     3     1    14 1   
     4     2     3 1   
     5     2    15 1   
     6     2    16 1   
     7     3     4 1   
     8     3    17 1   
     9     3    18 1   
    10     4     5 1   
    11     4    19 1   
    12     4    20 1   
    13     5     6 1   
    14     5    21 1   
    15     5    22 1   
    16     6     7 1   
    17     6    23 1   
    18     7     8 2   
    19     7     9 1   
    20     9    10 1   
    21     9    24 1   
    22     9    25 1   
    23    10    11 1   
    24    11    12 3   
@<TRIPOS>SUBSTRUCTURE
     1 ZNN         1 TEMP              0 ****  ****    0 ROOT
