@<TRIPOS>MOLECULE
ZNP
   27    27     1     0     0
SMALL
No Charge or Current Charge


@<TRIPOS>ATOM
      1 CAF         -2.4250     0.0280     1.2840 ca         1 ZNP      -0.106500
      2 CAG         -3.6660    -0.5860     1.0410 ca         1 ZNP      -0.105500
      3 CAH         -4.2180    -0.5710    -0.2510 ca         1 ZNP      -0.103000
      4 CAI         -3.5280     0.0590    -1.3000 ca         1 ZNP      -0.105500
      5 CAJ         -2.2870     0.6730    -1.0580 ca         1 ZNP      -0.106500
      6 CAE         -1.7270     0.6600     0.2350 ca         1 ZNP      -0.100300
      7 CAD         -0.3760     1.3190     0.4920 c3         1 ZNP      -0.025100
      8 CAB          0.8100     0.5040    -0.0870 c3         1 ZNP      -0.153700
      9 CAA          0.8900    -0.9250     0.5290 c3         1 ZNP      -0.034400
     10 NAK          2.0250    -1.7650    -0.0630 no         1 ZNP       0.593000
     11 OAN          3.0120    -1.9820     0.6480 o          1 ZNP      -0.401000
     12 OAM          1.8960    -2.1610    -1.2270 o          1 ZNP      -0.401000
     13 CAC          2.1340     1.2630     0.1090 c          1 ZNP       0.613100
     14 OAO          2.6100     1.5070     1.2040 o          1 ZNP      -0.602100
     15 NAL          2.7680     1.6640    -1.0130 nt         1 ZNP      -0.595000
     16 HAF         -2.0050     0.0080     2.2870 ha         1 ZNP       0.112000
     17 HAG         -4.1990    -1.0730     1.8550 ha         1 ZNP       0.117500
     18 HAH         -5.1790    -1.0460    -0.4380 ha         1 ZNP       0.117000
     19 HAI         -3.9550     0.0720    -2.3010 ha         1 ZNP       0.117500
     20 HAJ         -1.7600     1.1580    -1.8760 ha         1 ZNP       0.112000
     21 HAD         -0.3710     2.3220     0.0480 hc         1 ZNP       0.063200
     22 HADA        -0.2230     1.4680     1.5690 hc         1 ZNP       0.063200
     23 HAB          0.6380     0.3970    -1.1650 hc         1 ZNP       0.082700
     24 HAA          1.0690    -0.8830     1.6110 h1         1 ZNP       0.106200
     25 HAAA        -0.0260    -1.4950     0.3360 h1         1 ZNP       0.106200
     26 HNAL         2.3720     1.4660    -1.9200 hn         1 ZNP       0.318500
     27 HNAA         3.6390     2.1670    -0.9330 hn         1 ZNP       0.318500
@<TRIPOS>BOND
     1     1     2 ar  
     2     1     6 ar  
     3     1    16 1   
     4     2     3 ar  
     5     2    17 1   
     6     3     4 ar  
     7     3    18 1   
     8     4     5 ar  
     9     4    19 1   
    10     5     6 ar  
    11     5    20 1   
    12     6     7 1   
    13     7     8 1   
    14     7    21 1   
    15     7    22 1   
    16     8     9 1   
    17     8    13 1   
    18     8    23 1   
    19     9    10 1   
    20     9    24 1   
    21     9    25 1   
    22    10    11 1   
    23    10    12 1   
    24    13    14 2   
    25    13    15 1   
    26    15    26 1   
    27    15    27 1   
@<TRIPOS>SUBSTRUCTURE
     1 ZNP         1 TEMP              0 ****  ****    0 ROOT
