@<TRIPOS>MOLECULE
ZNP
   27    27     1     0     0
SMALL
bcc


@<TRIPOS>ATOM
      1 CAF         -2.3700     0.1420     1.2770 ca         1 ZNP      -0.124500
      2 CAG         -3.6140    -0.4490     1.0920 ca         1 ZNP      -0.123500
      3 CAH         -4.1520    -0.5540    -0.1830 ca         1 ZNP      -0.121000
      4 CAI         -3.4410    -0.0600    -1.2700 ca         1 ZNP      -0.123500
      5 CAJ         -2.2000     0.5310    -1.0810 ca         1 ZNP      -0.124500
      6 CAE         -1.6480     0.6370     0.1950 ca         1 ZNP      -0.100300
      7 CAD         -0.2910     1.2580     0.3880 c3         1 ZNP      -0.025100
      8 CAB          0.8480     0.3960    -0.1960 c3         1 ZNP      -0.153700
      9 CAA          0.8670    -0.9430     0.5050 c3         1 ZNP      -0.063700
     10 NAK          1.9710    -1.8350     0.0510 no         1 ZNP       0.242300
     11 OAN          2.2020    -2.8060     0.7280 o          1 ZNP      -0.211000
     12 OAM          2.5530    -1.5640    -0.9710 o          1 ZNP      -0.211000
     13 CAC          2.1690     1.1270     0.0070 c          1 ZNP       0.680100
     14 OAO          2.8540     0.9360     1.0010 o          1 ZNP      -0.602100
     15 NAL          2.4770     2.0070    -0.9510 nt         1 ZNP      -0.662000
     16 HAF         -1.9580     0.2230     2.2760 ha         1 ZNP       0.130000
     17 HAG         -4.1610    -0.8270     1.9460 ha         1 ZNP       0.135500
     18 HAH         -5.1190    -1.0160    -0.3310 ha         1 ZNP       0.135000
     19 HAI         -3.8550    -0.1340    -2.2670 ha         1 ZNP       0.135500
     20 HAJ         -1.6570     0.9180    -1.9360 ha         1 ZNP       0.130000
     21 HAD         -0.2610     2.2370    -0.0940 hc         1 ZNP       0.063200
     22 HADA        -0.1060     1.4250     1.4520 hc         1 ZNP       0.063200
     23 HAB          0.6610     0.2560    -1.2640 hc         1 ZNP       0.082700
     24 HAA          0.9810    -0.8430     1.5830 h1         1 ZNP       0.106200
     25 HAAA        -0.0480    -1.5060     0.3120 h1         1 ZNP       0.106200
     26 HNAL         1.9050     2.1240    -1.7690 hn         1 ZNP       0.318500
     27 HNAA         3.3100     2.5690    -0.8830 hn         1 ZNP       0.318500
@<TRIPOS>BOND
     1     1     2 ar  
     2     1     6 ar  
     3     1    16 1   
     4     2     3 ar  
     5     2    17 1   
     6     3     4 ar  
     7     3    18 1   
     8     4     5 ar  
     9     4    19 1   
    10     5     6 ar  
    11     5    20 1   
    12     6     7 1   
    13     7     8 1   
    14     7    21 1   
    15     7    22 1   
    16     8     9 1   
    17     8    13 1   
    18     8    23 1   
    19     9    10 1   
    20     9    24 1   
    21     9    25 1   
    22    10    11 1   
    23    10    12 1   
    24    13    14 2   
    25    13    15 1   
    26    15    26 1   
    27    15    27 1   
@<TRIPOS>SUBSTRUCTURE
     1 ZNP         1 TEMP              0 ****  ****    0 ROOT
