@<TRIPOS>MOLECULE
ZNT
   63    68     1     0     0
SMALL
No Charge or Current Charge


@<TRIPOS>ATOM
      1 C13        -22.1940    35.5340    -1.8150 c5         1 ZNT       0.208300
      2 C17        -22.9350    33.8650     0.9010 c3         1 ZNT       0.225600
      3 C20        -23.3390    36.4800    -1.3460 c5         1 ZNT       0.308700
      4 C22        -23.0370    38.9310    -1.6100 c          1 ZNT       0.654000
      5 C24        -21.6420    40.2360    -0.0870 c          1 ZNT       0.607200
      6 C26        -21.9640    37.8020     0.2750 cc         1 ZNT       0.036600
      7 C02        -17.7150    32.6860    -0.4760 c5         1 ZNT       0.100300
      8 C03        -19.0830    33.3260    -0.9140 c5         1 ZNT       0.175300
      9 C08        -19.2570    32.8800    -2.4230 c5         1 ZNT       0.148300
     10 C09        -19.4290    34.0110    -3.4940 c3         1 ZNT       0.222600
     11 C14        -22.9460    34.1610    -1.7310 c5         1 ZNT       0.128300
     12 C16        -23.6960    34.3550    -0.3680 c5         1 ZNT       0.121300
     13 C25        -21.4070    39.0000     0.6590 cd         1 ZNT      -0.395200
     14 C32        -16.9960    32.5850    -1.8610 c5         1 ZNT       0.315300
     15 C34        -15.5600    33.7980    -3.5480 ca         1 ZNT       0.110500
     16 C36        -14.3770    33.2240    -5.4220 ca         1 ZNT       0.146900
     17 C38        -14.2860    35.4130    -4.7600 ca         1 ZNT       0.431900
     18 C40        -15.1360    35.0960    -3.6790 ca         1 ZNT      -0.078600
     19 C42        -16.3940    35.0860    -1.9300 cc         1 ZNT       0.464700
     20 N21        -22.7860    37.7690    -0.8550 n          1 ZNT      -0.297000
     21 N23        -22.4530    40.0750    -1.1620 ns         1 ZNT      -0.452500
     22 N33        -16.3540    33.7770    -2.4360 na         1 ZNT      -0.303300
     23 N35        -15.1900    32.8310    -4.4120 nb         1 ZNT      -0.206000
     24 N37        -13.9040    34.4750    -5.6420 nb         1 ZNT      -0.324000
     25 N39        -13.8100    36.6680    -4.9840 nv         1 ZNT      -1.077900
     26 N41        -15.6430    35.9240    -2.6740 nd         1 ZNT      -0.572100
     27 O01        -17.9330    31.3840     0.1080 oh         1 ZNT      -0.741000
     28 O04        -20.1240    32.7280    -0.0810 os         1 ZNT      -0.605400
     29 O10        -19.4560    35.3020    -2.8710 os         1 ZNT      -0.621400
     30 O12        -21.8210    35.7640    -3.2010 os         1 ZNT      -0.572400
     31 O15        -23.8970    33.9570    -2.8010 oh         1 ZNT      -0.689000
     32 O18        -21.5980    34.3920     0.9410 os         1 ZNT      -0.620400
     33 O19        -24.0160    35.7770    -0.2740 os         1 ZNT      -0.470000
     34 O27        -21.1690    41.3170     0.2190 o          1 ZNT      -0.597000
     35 O28        -23.7450    38.9490    -2.6050 o          1 ZNT      -0.591000
     36 O31        -18.0540    32.1260    -2.7280 os         1 ZNT      -0.459000
     37 P05        -20.3860    33.4210     1.3590 p5         1 ZNT       1.404800
     38 P11        -20.3950    36.4590    -3.4770 p5         1 ZNT       1.402800
     39 H1         -21.3170    35.5710    -1.1570 h1         1 ZNT       0.074700
     40 H2         -23.4940    34.1750     1.7940 h1         1 ZNT       0.035200
     41 H3         -22.9290    32.7670     0.8790 h1         1 ZNT       0.035200
     42 H4         -24.0400    36.6640    -2.1700 h2         1 ZNT       0.110700
     43 H5         -21.8510    36.8460     0.7810 h4         1 ZNT       0.251000
     44 H6         -17.1610    33.3350     0.2180 h1         1 ZNT       0.106700
     45 H7         -19.0760    34.4160    -0.7780 h1         1 ZNT       0.092700
     46 H8         -20.1100    32.1960    -2.5260 h1         1 ZNT       0.054700
     47 H9         -20.3570    33.8170    -4.0490 h1         1 ZNT       0.035700
     48 H10        -18.6040    33.9610    -4.2170 h1         1 ZNT       0.035700
     49 H11        -22.2360    33.3240    -1.6850 h1         1 ZNT       0.061700
     50 H12        -24.6470    33.8060    -0.3820 h1         1 ZNT       0.038700
     51 H13        -20.7680    39.0950     1.5290 ha         1 ZNT       0.221000
     52 H14        -16.2010    31.8300    -1.8130 h2         1 ZNT       0.094700
     53 H15        -14.0720    32.4550    -6.1290 h5         1 ZNT       0.025100
     54 H16        -16.9540    35.3600    -1.0430 h5         1 ZNT       0.123800
     55 H17        -22.6370    40.9030    -1.7030 hn         1 ZNT       0.319500
     56 H18        -13.4580    36.8850    -5.9120 hn         1 ZNT       0.496000
     57 H19        -14.2510    37.4270    -4.4700 hn         1 ZNT       0.496000
     58 H20        -18.9210    31.3390     0.1790 ho         1 ZNT       0.533000
     59 H22        -24.1930    33.0200    -2.7590 ho         1 ZNT       0.472000
     60 O06        -20.8080    32.4160     2.3740 o          1 ZNT      -0.818000
     61 O07        -19.2100    34.2130     1.8180 o          1 ZNT      -0.818000
     62 O29        -20.2430    37.7320    -2.7200 o          1 ZNT      -0.810000
     63 O30        -20.1470    36.6400    -4.9370 o          1 ZNT      -0.810000
@<TRIPOS>BOND
     1     1     3 1   
     2     1    11 1   
     3     1    30 1   
     4     1    39 1   
     5     2    12 1   
     6     2    32 1   
     7     2    40 1   
     8     2    41 1   
     9     3    20 1   
    10     3    33 1   
    11     3    42 1   
    12     4    20 1   
    13     4    21 1   
    14     4    35 2   
    15     5    13 1   
    16     5    21 1   
    17     5    34 2   
    18     6    13 2   
    19     6    20 1   
    20     6    43 1   
    21     7     8 1   
    22     7    14 1   
    23     7    27 1   
    24     7    44 1   
    25     8     9 1   
    26     8    28 1   
    27     8    45 1   
    28     9    10 1   
    29     9    36 1   
    30     9    46 1   
    31    10    29 1   
    32    10    47 1   
    33    10    48 1   
    34    11    12 1   
    35    11    31 1   
    36    11    49 1   
    37    12    33 1   
    38    12    50 1   
    39    13    51 1   
    40    14    22 1   
    41    14    36 1   
    42    14    52 1   
    43    15    18 ar  
    44    15    22 1   
    45    15    23 ar  
    46    16    23 ar  
    47    16    24 ar  
    48    16    53 1   
    49    17    18 ar  
    50    17    24 ar  
    51    17    25 1   
    52    18    26 1   
    53    19    22 1   
    54    19    26 2   
    55    19    54 1   
    56    21    55 1   
    57    25    56 1   
    58    25    57 1   
    59    27    58 1   
    60    28    37 1   
    61    29    38 1   
    62    30    38 1   
    63    31    59 1   
    64    32    37 1   
    65    37    60 1   
    66    37    61 1   
    67    38    62 1   
    68    38    63 1   
@<TRIPOS>SUBSTRUCTURE
     1 ZNT         1 TEMP              0 ****  ****    0 ROOT
