@<TRIPOS>MOLECULE
ZNT
   63    68     1     0     0
SMALL
abcg2


@<TRIPOS>ATOM
      1 C13        -22.7330    35.4040    -1.6020 c5         1 ZNT       0.208300
      2 C17        -22.4460    34.0230     1.3410 c3         1 ZNT       0.225600
      3 C20        -23.1090    36.6360    -0.7710 c5         1 ZNT       0.308700
      4 C22        -22.3220    38.8790    -1.3590 c          1 ZNT       0.654000
      5 C24        -19.9710    39.5170    -0.8590 c          1 ZNT       0.607200
      6 C26        -20.8420    37.3620    -0.2210 cc         1 ZNT       0.036600
      7 C02        -17.8430    32.5450    -1.7620 c5         1 ZNT       0.100300
      8 C03        -19.2820    33.0750    -1.7390 c5         1 ZNT       0.175300
      9 C08        -19.8070    32.6150    -3.1010 c5         1 ZNT       0.148300
     10 C09        -20.9470    33.4070    -3.6920 c3         1 ZNT       0.222600
     11 C14        -23.5770    34.3140    -0.9510 c5         1 ZNT       0.128300
     12 C16        -23.5170    34.7160     0.5280 c5         1 ZNT       0.121300
     13 C25        -19.8060    38.2210    -0.2500 cd         1 ZNT      -0.395200
     14 C32        -17.4630    32.7630    -3.2240 c5         1 ZNT       0.315300
     15 C34        -15.5050    34.3440    -3.1740 ca         1 ZNT       0.110500
     16 C36        -13.3720    34.1250    -2.6320 ca         1 ZNT       0.146900
     17 C38        -14.0830    36.2560    -3.1910 ca         1 ZNT       0.431900
     18 C40        -15.3660    35.7130    -3.3950 ca         1 ZNT      -0.078600
     19 C42        -17.4210    35.2610    -3.7650 cc         1 ZNT       0.464700
     20 N21        -22.0730    37.6610    -0.7440 n          1 ZNT      -0.297000
     21 N23        -21.2530    39.7440    -1.3530 ns         1 ZNT      -0.452500
     22 N33        -16.8280    34.0660    -3.4220 na         1 ZNT      -0.303300
     23 N35        -14.5380    33.5010    -2.7880 nb         1 ZNT      -0.206000
     24 N37        -13.0970    35.4220    -2.8070 nb         1 ZNT      -0.324000
     25 N39        -13.8100    37.5630    -3.3410 nv         1 ZNT      -1.077900
     26 N41        -16.5780    36.2670    -3.7680 nd         1 ZNT      -0.572100
     27 O01        -17.8110    31.1510    -1.4990 oh         1 ZNT      -0.741000
     28 O04        -20.0420    32.5240    -0.6760 os         1 ZNT      -0.605400
     29 O10        -20.6520    34.8020    -3.6210 os         1 ZNT      -0.621400
     30 O12        -22.9830    35.5510    -2.9810 os         1 ZNT      -0.572400
     31 O15        -24.8980    34.4000    -1.4710 oh         1 ZNT      -0.689000
     32 O18        -21.1550    34.2850     0.7850 os         1 ZNT      -0.620400
     33 O19        -23.3200    36.1520     0.5440 os         1 ZNT      -0.470000
     34 O27        -19.1080    40.3840    -0.9630 o          1 ZNT      -0.597000
     35 O28        -23.3960    39.1830    -1.8530 o          1 ZNT      -0.591000
     36 O31        -18.6570    32.7030    -3.9730 os         1 ZNT      -0.459000
     37 P05        -19.9440    33.2030     0.8240 p5         1 ZNT       1.404800
     38 P11        -21.7680    35.9190    -4.0180 p5         1 ZNT       1.402800
     39 H1         -21.6870    35.1630    -1.4220 h1         1 ZNT       0.074700
     40 H2         -22.4690    34.3980     2.3670 h1         1 ZNT       0.035200
     41 H3         -22.6490    32.9520     1.3610 h1         1 ZNT       0.035200
     42 H4         -24.0020    37.1100    -1.1710 h2         1 ZNT       0.110700
     43 H5         -20.7640    36.3800     0.2250 h4         1 ZNT       0.251000
     44 H6         -17.1880    33.0890    -1.0830 h1         1 ZNT       0.106700
     45 H7         -19.2740    34.1630    -1.6870 h1         1 ZNT       0.092700
     46 H8         -20.1220    31.5690    -3.0330 h1         1 ZNT       0.054700
     47 H9         -21.8560    33.1770    -3.1340 h1         1 ZNT       0.035700
     48 H10        -21.0990    33.1080    -4.7310 h1         1 ZNT       0.035700
     49 H11        -23.1600    33.3180    -1.1140 h1         1 ZNT       0.061700
     50 H12        -24.4800    34.5040     1.0020 h1         1 ZNT       0.038700
     51 H13        -18.8490    37.9570     0.1720 ha         1 ZNT       0.221000
     52 H14        -16.7600    32.0040    -3.5680 h2         1 ZNT       0.094700
     53 H15        -12.5360    33.5070    -2.3220 h5         1 ZNT       0.025100
     54 H16        -18.4720    35.3150    -3.9980 h5         1 ZNT       0.123800
     55 H17        -21.4190    40.6380    -1.7990 hn         1 ZNT       0.319500
     56 H18        -12.8590    37.8830    -3.2660 hn         1 ZNT       0.496000
     57 H19        -14.5040    38.1880    -3.7150 hn         1 ZNT       0.496000
     58 H20        -18.4750    30.9740    -0.8150 ho         1 ZNT       0.533000
     59 H22        -25.4330    33.7150    -1.0500 ho         1 ZNT       0.472000
     60 O06        -20.2670    32.1080     1.7800 o          1 ZNT      -0.818000
     61 O07        -18.6840    33.9950     0.9080 o          1 ZNT      -0.818000
     62 O29        -21.1520    37.2280    -3.6680 o          1 ZNT      -0.810000
     63 O30        -22.3310    35.6600    -5.3730 o          1 ZNT      -0.810000
@<TRIPOS>BOND
     1     1     3 1   
     2     1    11 1   
     3     1    30 1   
     4     1    39 1   
     5     2    12 1   
     6     2    32 1   
     7     2    40 1   
     8     2    41 1   
     9     3    20 1   
    10     3    33 1   
    11     3    42 1   
    12     4    20 1   
    13     4    21 1   
    14     4    35 2   
    15     5    13 1   
    16     5    21 1   
    17     5    34 2   
    18     6    13 2   
    19     6    20 1   
    20     6    43 1   
    21     7     8 1   
    22     7    14 1   
    23     7    27 1   
    24     7    44 1   
    25     8     9 1   
    26     8    28 1   
    27     8    45 1   
    28     9    10 1   
    29     9    36 1   
    30     9    46 1   
    31    10    29 1   
    32    10    47 1   
    33    10    48 1   
    34    11    12 1   
    35    11    31 1   
    36    11    49 1   
    37    12    33 1   
    38    12    50 1   
    39    13    51 1   
    40    14    22 1   
    41    14    36 1   
    42    14    52 1   
    43    15    18 ar  
    44    15    22 1   
    45    15    23 ar  
    46    16    23 ar  
    47    16    24 ar  
    48    16    53 1   
    49    17    18 ar  
    50    17    24 ar  
    51    17    25 1   
    52    18    26 1   
    53    19    22 1   
    54    19    26 2   
    55    19    54 1   
    56    21    55 1   
    57    25    56 1   
    58    25    57 1   
    59    27    58 1   
    60    28    37 1   
    61    29    38 1   
    62    30    38 1   
    63    31    59 1   
    64    32    37 1   
    65    37    60 1   
    66    37    61 1   
    67    38    62 1   
    68    38    63 1   
@<TRIPOS>SUBSTRUCTURE
     1 ZNT         1 TEMP              0 ****  ****    0 ROOT
