@<TRIPOS>MOLECULE
ZNU
   39    39     1     0     0
SMALL
abcg2


@<TRIPOS>ATOM
      1 C1         -18.1310   -26.9060     0.2790 c6         1 ZNU       0.210800
      2 C2         -16.9570   -27.4090    -0.5840 c6         1 ZNU       0.241300
      3 C3         -16.7060   -26.5610    -1.8530 c6         1 ZNU       0.237300
      4 C4         -16.6820   -25.0670    -1.5030 c6         1 ZNU       0.241300
      5 C5         -18.0120   -24.6600    -0.8630 c6         1 ZNU       0.210800
      6 C6         -18.1350   -25.3880     0.4700 c6         1 ZNU       0.150300
      7 O11        -18.0390   -27.5410     1.5580 os         1 ZNU      -0.613400
      8 P1         -19.3790   -27.9980     2.4400 p5         1 ZNU       1.356400
      9 O21        -18.7740   -28.8540     3.5380 o          1 ZNU      -0.985667
     10 O31        -20.3180   -28.7190     1.4850 o          1 ZNU      -0.985667
     11 O41        -19.9740   -26.6770     2.9710 o          1 ZNU      -0.985667
     12 O12        -17.2030   -28.7570    -0.9670 os         1 ZNU      -0.578400
     13 P2         -16.3250   -30.1000    -0.4600 p5         1 ZNU       1.354400
     14 O22        -14.9820   -29.5750     0.0430 o          1 ZNU      -0.993833
     15 O32        -16.2470   -30.9410    -1.7330 o          1 ZNU      -0.993833
     16 O42        -17.1550   -30.7820     0.6270 o          1 ZNU      -0.993833
     17 O13        -15.4800   -26.9620    -2.4510 os         1 ZNU      -0.611400
     18 P3         -15.3200   -27.4190    -4.0630 p5         1 ZNU       1.355900
     19 O23        -16.7380   -27.6260    -4.5910 o          1 ZNU      -0.987167
     20 O33        -14.5660   -26.2890    -4.7620 o          1 ZNU      -0.987167
     21 O43        -14.4850   -28.6970    -3.9810 o          1 ZNU      -0.987167
     22 O14        -16.4010   -24.2910    -2.6500 os         1 ZNU      -0.578400
     23 P4         -15.3870   -22.9630    -2.5640 p5         1 ZNU       1.354400
     24 O24        -14.0840   -23.4600    -1.9380 o          1 ZNU      -0.993833
     25 O34        -15.2680   -22.5770    -4.0350 o          1 ZNU      -0.993833
     26 O44        -16.0970   -21.9170    -1.7060 o          1 ZNU      -0.993833
     27 O15        -19.1120   -24.9800    -1.7030 os         1 ZNU      -0.613400
     28 P5         -20.1810   -23.8690    -2.3620 p5         1 ZNU       1.356400
     29 O25        -19.7430   -23.6750    -3.8140 o          1 ZNU      -0.985667
     30 O35        -20.0790   -22.5970    -1.5230 o          1 ZNU      -0.985667
     31 O45        -21.5200   -24.5940    -2.2380 o          1 ZNU      -0.985667
     32 O16        -19.2890   -24.9290     1.1560 oh         1 ZNU      -0.789000
     33 H1         -19.0640   -27.2030    -0.2060 h1         1 ZNU       0.043200
     34 H2         -16.0490   -27.3700     0.0260 h1         1 ZNU      -0.016800
     35 H3         -17.5160   -26.7410    -2.5600 h1         1 ZNU       0.077700
     36 H4         -15.8900   -24.9040    -0.7620 h1         1 ZNU      -0.016800
     37 H5         -17.9990   -23.5860    -0.6760 h1         1 ZNU       0.043200
     38 H6         -17.2370   -25.1370     1.0560 h1         1 ZNU      -0.056300
     39 H17        -19.5320   -25.5780     1.8810 ho         1 ZNU       0.480000
@<TRIPOS>BOND
     1     1     2 1   
     2     1     6 1   
     3     1     7 1   
     4     1    33 1   
     5     2     3 1   
     6     2    12 1   
     7     2    34 1   
     8     3     4 1   
     9     3    17 1   
    10     3    35 1   
    11     4     5 1   
    12     4    22 1   
    13     4    36 1   
    14     5     6 1   
    15     5    27 1   
    16     5    37 1   
    17     6    32 1   
    18     6    38 1   
    19     7     8 1   
    20     8     9 1   
    21     8    10 1   
    22     8    11 1   
    23    12    13 1   
    24    13    14 1   
    25    13    15 1   
    26    13    16 1   
    27    17    18 1   
    28    18    19 1   
    29    18    20 1   
    30    18    21 1   
    31    22    23 1   
    32    23    24 1   
    33    23    25 1   
    34    23    26 1   
    35    27    28 1   
    36    28    29 1   
    37    28    30 1   
    38    28    31 1   
    39    32    39 1   
@<TRIPOS>SUBSTRUCTURE
     1 ZNU         1 TEMP              0 ****  ****    0 ROOT
