@<TRIPOS>MOLECULE
ZNU
   39    39     1     0     0
SMALL
No Charge or Current Charge


@<TRIPOS>ATOM
      1 C1         -18.1470   -26.9510     0.2490 c6         1 ZNU       0.210800
      2 C2         -16.8850   -27.4670    -0.5560 c6         1 ZNU       0.241300
      3 C3         -16.7310   -26.6670    -1.9180 c6         1 ZNU       0.237300
      4 C4         -16.6140   -25.1340    -1.5730 c6         1 ZNU       0.241300
      5 C5         -17.9260   -24.6390    -0.8650 c6         1 ZNU       0.210800
      6 C6         -18.0430   -25.3960     0.5050 c6         1 ZNU       0.150300
      7 O11        -18.3630   -27.6760     1.4930 os         1 ZNU      -0.613400
      8 P1         -19.8620   -28.0460     1.9450 p5         1 ZNU       1.356400
      9 O21        -19.8310   -28.6910     3.2860 o          1 ZNU      -0.985667
     10 O31        -20.4940   -28.9760     0.9700 o          1 ZNU      -0.985667
     11 O41        -20.6560   -26.7940     2.0320 o          1 ZNU      -0.985667
     12 O12        -16.9200   -28.9090    -0.7500 os         1 ZNU      -0.578400
     13 P2         -15.7840   -29.8540    -0.0850 p5         1 ZNU       1.354400
     14 O22        -14.4260   -29.5190    -0.5960 o          1 ZNU      -0.993833
     15 O32        -16.0760   -31.2740    -0.4310 o          1 ZNU      -0.993833
     16 O42        -15.7720   -29.7360     1.4000 o          1 ZNU      -0.993833
     17 O13        -15.6110   -27.1400    -2.7270 os         1 ZNU      -0.611400
     18 P3         -15.8880   -27.6910    -4.2210 p5         1 ZNU       1.355900
     19 O23        -16.8260   -28.8470    -4.1980 o          1 ZNU      -0.987167
     20 O33        -16.4650   -26.6260    -5.0870 o          1 ZNU      -0.987167
     21 O43        -14.5990   -28.1350    -4.8230 o          1 ZNU      -0.987167
     22 O14        -16.2000   -24.2780    -2.6710 os         1 ZNU      -0.578400
     23 P4         -15.1410   -23.0960    -2.3700 p5         1 ZNU       1.354400
     24 O24        -13.8290   -23.6660    -1.9560 o          1 ZNU      -0.993833
     25 O34        -14.9300   -22.2870    -3.6040 o          1 ZNU      -0.993833
     26 O44        -15.6380   -22.1970    -1.2910 o          1 ZNU      -0.993833
     27 O15        -19.1230   -24.8310    -1.6770 os         1 ZNU      -0.613400
     28 P5         -20.0330   -23.5870    -2.1670 p5         1 ZNU       1.356400
     29 O25        -19.3060   -22.7440    -3.1550 o          1 ZNU      -0.985667
     30 O35        -20.4670   -22.7430    -1.0200 o          1 ZNU      -0.985667
     31 O45        -21.2500   -24.1330    -2.8310 o          1 ZNU      -0.985667
     32 O16        -19.1060   -24.8790     1.3400 oh         1 ZNU      -0.789000
     33 H1         -19.0210   -27.1200    -0.3980 h1         1 ZNU       0.043200
     34 H2         -16.0010   -27.2270     0.0550 h1         1 ZNU      -0.016800
     35 H3         -17.6600   -26.8100    -2.4890 h1         1 ZNU       0.077700
     36 H4         -15.8210   -25.0700    -0.8120 h1         1 ZNU      -0.016800
     37 H5         -17.8160   -23.5680    -0.6450 h1         1 ZNU       0.043200
     38 H6         -17.1010   -25.2240     1.0450 h1         1 ZNU      -0.056300
     39 H17        -19.6930   -25.6720     1.5800 ho         1 ZNU       0.480000
@<TRIPOS>BOND
     1     1     2 1   
     2     1     6 1   
     3     1     7 1   
     4     1    33 1   
     5     2     3 1   
     6     2    12 1   
     7     2    34 1   
     8     3     4 1   
     9     3    17 1   
    10     3    35 1   
    11     4     5 1   
    12     4    22 1   
    13     4    36 1   
    14     5     6 1   
    15     5    27 1   
    16     5    37 1   
    17     6    32 1   
    18     6    38 1   
    19     7     8 1   
    20     8     9 1   
    21     8    10 1   
    22     8    11 1   
    23    12    13 1   
    24    13    14 1   
    25    13    15 1   
    26    13    16 1   
    27    17    18 1   
    28    18    19 1   
    29    18    20 1   
    30    18    21 1   
    31    22    23 1   
    32    23    24 1   
    33    23    25 1   
    34    23    26 1   
    35    27    28 1   
    36    28    29 1   
    37    28    30 1   
    38    28    31 1   
    39    32    39 1   
@<TRIPOS>SUBSTRUCTURE
     1 ZNU         1 TEMP              0 ****  ****    0 ROOT
