@<TRIPOS>MOLECULE
ZNV
   20    20     1     0     0
SMALL
No Charge or Current Charge


@<TRIPOS>ATOM
      1 C10        -38.5590    26.9300   -12.5430 ca         1 ZNV       0.137000
      2 C01        -35.6750    23.7880   -15.9960 c2         1 ZNV      -0.293000
      3 C02        -36.6650    23.4280   -15.1610 c2         1 ZNV      -0.223200
      4 C03        -36.7870    23.8430   -13.7100 c3         1 ZNV       0.195800
      5 C05        -37.8220    25.7260   -12.4900 ca         1 ZNV       0.107100
      6 C06        -37.4050    25.2290   -11.2330 ca         1 ZNV      -0.180000
      7 C07        -37.7230    25.9300   -10.0550 ca         1 ZNV      -0.088000
      8 C08        -38.4570    27.1270   -10.1200 ca         1 ZNV      -0.123000
      9 C09        -38.8750    27.6270   -11.3650 ca         1 ZNV      -0.119000
     10 F11        -38.9710    27.4270   -13.7330 f          1 ZNV      -0.169000
     11 O04        -37.5320    25.0700   -13.6740 os         1 ZNV      -0.327100
     12 H1         -34.8560    24.4330   -15.6730 ha         1 ZNV       0.165500
     13 H2         -35.6520    23.4510   -17.0340 ha         1 ZNV       0.165500
     14 H3         -37.4770    22.7850   -15.5050 ha         1 ZNV       0.185000
     15 H4         -37.3050    23.0580   -13.1430 h1         1 ZNV       0.040200
     16 H5         -35.7880    23.9830   -13.2770 h1         1 ZNV       0.040200
     17 H6         -36.8370    24.3060   -11.1490 ha         1 ZNV       0.118000
     18 H7         -37.4000    25.5450    -9.0900 ha         1 ZNV       0.115000
     19 H8         -38.7000    27.6660    -9.2070 ha         1 ZNV       0.119000
     20 H9         -39.4430    28.5530   -11.4200 ha         1 ZNV       0.132000
@<TRIPOS>BOND
     1     1     5 ar  
     2     1     9 ar  
     3     1    10 1   
     4     2     3 2   
     5     2    12 1   
     6     2    13 1   
     7     3     4 1   
     8     3    14 1   
     9     4    11 1   
    10     4    15 1   
    11     4    16 1   
    12     5     6 ar  
    13     5    11 1   
    14     6     7 ar  
    15     6    17 1   
    16     7     8 ar  
    17     7    18 1   
    18     8     9 ar  
    19     8    19 1   
    20     9    20 1   
@<TRIPOS>SUBSTRUCTURE
     1 ZNV         1 TEMP              0 ****  ****    0 ROOT
