@<TRIPOS>MOLECULE
ZNV
   20    20     1     0     0
SMALL
bcc


@<TRIPOS>ATOM
      1 C10        -38.6610    26.8830   -12.4740 ca         1 ZNV       0.101900
      2 C01        -35.5960    23.4790   -15.8920 c2         1 ZNV      -0.193000
      3 C02        -36.7240    23.6370   -15.2130 c2         1 ZNV      -0.173200
      4 C03        -36.7730    24.0640   -13.7850 c3         1 ZNV       0.172600
      5 C05        -37.8260    25.7620   -12.5020 ca         1 ZNV       0.107100
      6 C06        -37.3220    25.2980   -11.2920 ca         1 ZNV      -0.198000
      7 C07        -37.6520    25.9410   -10.1010 ca         1 ZNV      -0.106000
      8 C08        -38.4810    27.0480   -10.1000 ca         1 ZNV      -0.141000
      9 C09        -38.9900    27.5240   -11.3040 ca         1 ZNV      -0.137000
     10 F11        -39.1480    27.3330   -13.6420 f          1 ZNV      -0.133900
     11 O04        -37.5810    25.2320   -13.7120 os         1 ZNV      -0.303900
     12 H1         -34.6300    23.6840   -15.4470 ha         1 ZNV       0.115500
     13 H2         -35.5970    23.1320   -16.9170 ha         1 ZNV       0.115500
     14 H3         -37.6780    23.4220   -15.6840 ha         1 ZNV       0.135000
     15 H4         -37.2110    23.2680   -13.1700 h1         1 ZNV       0.040200
     16 H5         -35.7640    24.2640   -13.4060 h1         1 ZNV       0.040200
     17 H6         -36.6700    24.4360   -11.2590 ha         1 ZNV       0.136000
     18 H7         -37.2480    25.5610    -9.1720 ha         1 ZNV       0.133000
     19 H8         -38.7350    27.5460    -9.1740 ha         1 ZNV       0.137000
     20 H9         -39.6420    28.3890   -11.3340 ha         1 ZNV       0.150000
@<TRIPOS>BOND
     1     1     5 ar  
     2     1     9 ar  
     3     1    10 1   
     4     2     3 2   
     5     2    12 1   
     6     2    13 1   
     7     3     4 1   
     8     3    14 1   
     9     4    11 1   
    10     4    15 1   
    11     4    16 1   
    12     5     6 ar  
    13     5    11 1   
    14     6     7 ar  
    15     6    17 1   
    16     7     8 ar  
    17     7    18 1   
    18     8     9 ar  
    19     8    19 1   
    20     9    20 1   
@<TRIPOS>SUBSTRUCTURE
     1 ZNV         1 TEMP              0 ****  ****    0 ROOT
