@<TRIPOS>MOLECULE
ZNX
   46    48     1     0     0
SMALL
No Charge or Current Charge


@<TRIPOS>ATOM
      1 N1         -16.2810    17.5710    26.4920 ns         1 ZNX      -0.163000
      2 N3         -19.8500    13.9340    25.6380 n          1 ZNX      -0.410800
      3 C4         -14.9790    19.3850    25.5590 ca         1 ZNX      -0.102500
      4 C5         -15.3770    18.6530    26.6940 ca         1 ZNX      -0.052000
      5 C6         -16.8350    16.6300    27.3540 c          1 ZNX       0.659100
      6 C7         -18.5470    14.8140    27.6280 c6         1 ZNX       0.085500
      7 C8         -19.1760    13.5920    26.9210 c6         1 ZNX       0.091500
      8 C10        -18.2270    15.8780    25.3600 c6         1 ZNX       0.085500
      9 C13        -22.9370    11.7320    25.6470 cc         1 ZNX      -0.096000
     10 C15        -23.2190    12.3440    27.7640 cd         1 ZNX       0.163300
     11 C17        -14.8710    19.0270    27.9590 ca         1 ZNX      -0.102500
     12 O1         -12.7170    21.9080    26.9950 os         1 ZNX      -0.350100
     13 C2         -13.5860    20.8370    26.9360 ca         1 ZNX       0.114100
     14 C3         -14.0900    20.4680    25.6800 ca         1 ZNX      -0.143000
     15 O2         -16.5880    16.5810    28.5520 o          1 ZNX      -0.626100
     16 N2         -17.7210    15.7000    26.7570 n          1 ZNX      -0.427800
     17 C9         -18.9170    14.6430    24.7260 c6         1 ZNX       0.091500
     18 O3         -20.8920    12.8700    23.8870 o          1 ZNX      -0.598100
     19 C12        -21.9400    12.6000    26.0150 cd         1 ZNX       0.061500
     20 C14        -23.7540    11.5610    26.7810 cc         1 ZNX      -0.198000
     21 O4         -22.1060    13.0200    27.3220 os         1 ZNX      -0.255000
     22 C18        -13.9810    20.1110    28.0800 ca         1 ZNX      -0.143000
     23 H6         -16.5780    17.4700    25.5320 hn         1 ZNX       0.146000
     24 H5         -15.3590    19.1160    24.5760 ha         1 ZNX       0.124500
     25 H8         -17.9390    14.4460    28.4660 h1         1 ZNX       0.058450
     26 H7         -19.3570    15.4180    28.0600 h1         1 ZNX       0.058450
     27 H10        -18.3680    12.8820    26.6950 h1         1 ZNX       0.067200
     28 H9         -19.8340    13.0760    27.6260 h1         1 ZNX       0.067200
     29 H14        -17.4050    16.1720    24.6930 h1         1 ZNX       0.058450
     30 H13        -18.9500    16.7070    25.3660 h1         1 ZNX       0.058450
     31 H15        -23.0780    11.2630    24.6780 ha         1 ZNX       0.156000
     32 H20        -15.1530    18.4960    28.8620 ha         1 ZNX       0.124500
     33 H2         -11.4860    23.2230    28.0540 h1         1 ZNX       0.041033
     34 H1         -12.9300    22.6800    28.9330 h1         1 ZNX       0.041033
     35 H3         -11.5500    21.5720    28.7050 h1         1 ZNX       0.041033
     36 H4         -13.7910    21.0240    24.7950 ha         1 ZNX       0.123500
     37 H11        -18.1410    13.9340    24.4040 h1         1 ZNX       0.067200
     38 H12        -19.4490    14.9690    23.8210 h1         1 ZNX       0.067200
     39 H16        -24.6360    10.9320    26.8460 ha         1 ZNX       0.145000
     40 H19        -23.9610    13.6040    29.3400 hc         1 ZNX       0.059033
     41 H18        -24.5410    11.9310    29.4130 hc         1 ZNX       0.059033
     42 H17        -22.8760    12.3120    29.8870 hc         1 ZNX       0.059033
     43 H21        -13.6110    20.3710    29.0680 ha         1 ZNX       0.123500
     44 C11        -20.8710    13.1130    25.0890 c          1 ZNX       0.546600
     45 C1         -12.1450    22.3650    28.2340 c3         1 ZNX       0.148900
     46 C16        -23.6750    12.5590    29.1770 c3         1 ZNX      -0.128400
@<TRIPOS>BOND
     1     1     4 1   
     2     1     5 1   
     3     1    23 1   
     4     2     7 1   
     5     2    17 1   
     6     2    44 1   
     7     3     4 ar  
     8     3    14 ar  
     9     3    24 1   
    10     4    11 ar  
    11     5    15 2   
    12     5    16 1   
    13     6     7 1   
    14     6    16 1   
    15     6    25 1   
    16     6    26 1   
    17     7    27 1   
    18     7    28 1   
    19     8    16 1   
    20     8    17 1   
    21     8    29 1   
    22     8    30 1   
    23     9    19 2   
    24     9    20 1   
    25     9    31 1   
    26    10    20 2   
    27    10    21 1   
    28    10    46 1   
    29    11    22 ar  
    30    11    32 1   
    31    12    13 1   
    32    12    45 1   
    33    13    14 ar  
    34    13    22 ar  
    35    14    36 1   
    36    17    37 1   
    37    17    38 1   
    38    18    44 2   
    39    19    21 1   
    40    19    44 1   
    41    20    39 1   
    42    22    43 1   
    43    33    45 1   
    44    34    45 1   
    45    35    45 1   
    46    40    46 1   
    47    41    46 1   
    48    42    46 1   
@<TRIPOS>SUBSTRUCTURE
     1 ZNX         1 TEMP              0 ****  ****    0 ROOT
