@<TRIPOS>MOLECULE
ZNX
   46    48     1     0     0
SMALL
abcg2


@<TRIPOS>ATOM
      1 N1         -16.5700    17.6750    26.2930 ns         1 ZNX      -0.163000
      2 N3         -19.4840    13.6530    25.6790 n          1 ZNX      -0.410800
      3 C4         -15.7220    19.8910    25.8760 ca         1 ZNX      -0.102500
      4 C5         -15.6670    18.7080    26.6200 ca         1 ZNX      -0.052000
      5 C6         -17.1390    16.7950    27.1840 c          1 ZNX       0.659100
      6 C7         -18.8810    15.1360    27.5250 c6         1 ZNX       0.085500
      7 C8         -19.0760    13.6960    27.0810 c6         1 ZNX       0.091500
      8 C10        -18.2730    15.7290    25.2160 c6         1 ZNX       0.085500
      9 C13        -22.5330    11.5230    25.8250 cc         1 ZNX      -0.096000
     10 C15        -23.0410    12.6000    27.7210 cd         1 ZNX       0.163300
     11 C17        -14.6930    18.5850    27.6070 ca         1 ZNX      -0.102500
     12 O1         -13.0480    21.8800    27.2980 os         1 ZNX      -0.350100
     13 C2         -13.8710    20.8050    27.1200 ca         1 ZNX       0.114100
     14 C3         -14.8340    20.9240    26.1160 ca         1 ZNX      -0.143000
     15 O2         -16.9240    16.8540    28.3960 o          1 ZNX      -0.626100
     16 N2         -17.9480    15.8270    26.6370 n          1 ZNX      -0.427800
     17 C9         -18.5000    14.2750    24.8060 c6         1 ZNX       0.091500
     18 O3         -20.5990    12.7120    23.9380 o          1 ZNX      -0.598100
     19 C12        -21.6290    12.5240    26.0180 cd         1 ZNX       0.061500
     20 C14        -23.4360    11.5660    26.9260 cc         1 ZNX      -0.198000
     21 O4         -21.9400    13.1940    27.1780 os         1 ZNX      -0.255000
     22 C18        -13.8060    19.6280    27.8630 ca         1 ZNX      -0.143000
     23 H6         -16.9920    17.7610    25.3840 hn         1 ZNX       0.146000
     24 H5         -16.4720    19.9980    25.1000 ha         1 ZNX       0.124500
     25 H8         -18.4810    15.1640    28.5330 h1         1 ZNX       0.058450
     26 H7         -19.8500    15.6500    27.5170 h1         1 ZNX       0.058450
     27 H10        -18.1270    13.1560    27.1700 h1         1 ZNX       0.067200
     28 H9         -19.8080    13.2080    27.7120 h1         1 ZNX       0.067200
     29 H14        -17.4480    16.1040    24.6160 h1         1 ZNX       0.058450
     30 H13        -19.1710    16.3160    24.9880 h1         1 ZNX       0.058450
     31 H15        -22.5450    10.8380    24.9940 ha         1 ZNX       0.156000
     32 H20        -14.6230    17.6760    28.1840 ha         1 ZNX       0.124500
     33 H2         -11.4970    22.7320    28.2650 h1         1 ZNX       0.041033
     34 H1         -12.4730    21.6490    29.2900 h1         1 ZNX       0.041033
     35 H3         -11.3470    20.9670    28.0860 h1         1 ZNX       0.041033
     36 H4         -14.8820    21.8370    25.5360 ha         1 ZNX       0.123500
     37 H11        -17.5560    13.7240    24.8720 h1         1 ZNX       0.067200
     38 H12        -18.8560    14.2340    23.7820 h1         1 ZNX       0.067200
     39 H16        -24.2770    10.9160    27.1060 ha         1 ZNX       0.145000
     40 H19        -23.8330    14.2220    28.8560 hc         1 ZNX       0.059033
     41 H18        -24.4360    12.6170    29.3070 hc         1 ZNX       0.059033
     42 H17        -22.8020    13.1210    29.7740 hc         1 ZNX       0.059033
     43 H21        -13.0660    19.5010    28.6400 ha         1 ZNX       0.123500
     44 C11        -20.5260    12.9660    25.1480 c          1 ZNX       0.546600
     45 C1         -12.0360    21.7880    28.2970 c3         1 ZNX       0.148900
     46 C16        -23.5560    13.1720    28.9850 c3         1 ZNX      -0.128400
@<TRIPOS>BOND
     1     1     4 1   
     2     1     5 1   
     3     1    23 1   
     4     2     7 1   
     5     2    17 1   
     6     2    44 1   
     7     3     4 ar  
     8     3    14 ar  
     9     3    24 1   
    10     4    11 ar  
    11     5    15 2   
    12     5    16 1   
    13     6     7 1   
    14     6    16 1   
    15     6    25 1   
    16     6    26 1   
    17     7    27 1   
    18     7    28 1   
    19     8    16 1   
    20     8    17 1   
    21     8    29 1   
    22     8    30 1   
    23     9    19 2   
    24     9    20 1   
    25     9    31 1   
    26    10    20 2   
    27    10    21 1   
    28    10    46 1   
    29    11    22 ar  
    30    11    32 1   
    31    12    13 1   
    32    12    45 1   
    33    13    14 ar  
    34    13    22 ar  
    35    14    36 1   
    36    17    37 1   
    37    17    38 1   
    38    18    44 2   
    39    19    21 1   
    40    19    44 1   
    41    20    39 1   
    42    22    43 1   
    43    33    45 1   
    44    34    45 1   
    45    35    45 1   
    46    40    46 1   
    47    41    46 1   
    48    42    46 1   
@<TRIPOS>SUBSTRUCTURE
     1 ZNX         1 TEMP              0 ****  ****    0 ROOT
