@<TRIPOS>MOLECULE
ZNY
   23    23     1     0     0
SMALL
abcg2


@<TRIPOS>ATOM
      1 CB           2.7450    12.2000    50.6080 c5         1 ZNY      -0.111400
      2 CD           1.9200    12.0890    48.3950 c5         1 ZNY       0.164800
      3 C            2.0550     9.8340    51.2360 c          1 ZNY       0.712000
      4 O            0.9120     9.4020    50.9820 o          1 ZNY      -0.732500
      5 CA           2.7270    10.7280    50.1760 c5         1 ZNY       0.025500
      6 CG           2.8370    12.9330    49.2740 c5         1 ZNY       0.142300
      7 N            2.0480    10.7130    48.8810 n7         1 ZNY      -0.854400
      8 O48          4.1370    12.8940    48.7220 os         1 ZNY      -0.450000
      9 C49          5.0520    13.7850    49.3140 c3         1 ZNY       0.166600
     10 C50          6.3590    13.7210    48.5550 c3         1 ZNY      -0.089100
     11 OXT          2.7160     9.6450    52.2760 o          1 ZNY      -0.732500
     12 H1           3.5460    12.4410    51.3080 hc         1 ZNY       0.044700
     13 H2           1.7990    12.4720    51.0880 hc         1 ZNY       0.044700
     14 H3           2.1990    12.1850    47.3410 h1         1 ZNY       0.022700
     15 H4           0.8950    12.4650    48.4880 h1         1 ZNY       0.022700
     16 H5           3.7640    10.3870    50.0610 h1         1 ZNY       0.058700
     17 H6           2.4900    13.9740    49.3400 h1         1 ZNY       0.012700
     18 H7           1.1350    10.3040    49.0340 hn         1 ZNY       0.432000
     19 H9           5.2260    13.5370    50.3690 h1         1 ZNY       0.010700
     20 H10          4.6560    14.8100    49.2940 h1         1 ZNY       0.010700
     21 H11          7.0800    14.4090    48.9970 hc         1 ZNY       0.033033
     22 H12          6.7900    12.7200    48.5890 hc         1 ZNY       0.033033
     23 H13          6.2270    14.0020    47.5100 hc         1 ZNY       0.033033
@<TRIPOS>BOND
     1     1     5 1   
     2     1     6 1   
     3     1    12 1   
     4     1    13 1   
     5     2     6 1   
     6     2     7 1   
     7     2    14 1   
     8     2    15 1   
     9     3     4 1   
    10     3     5 1   
    11     3    11 1   
    12     5     7 1   
    13     5    16 1   
    14     6     8 1   
    15     6    17 1   
    16     7    18 1   
    17     8     9 1   
    18     9    10 1   
    19     9    19 1   
    20     9    20 1   
    21    10    21 1   
    22    10    22 1   
    23    10    23 1   
@<TRIPOS>SUBSTRUCTURE
     1 ZNY         1 TEMP              0 ****  ****    0 ROOT
