@<TRIPOS>MOLECULE
ZNY
   23    23     1     0     0
SMALL
No Charge or Current Charge


@<TRIPOS>ATOM
      1 CB           2.6990    12.1500    50.5490 c5         1 ZNY      -0.111400
      2 CD           1.9710    11.9660    48.2120 c5         1 ZNY       0.164800
      3 C            2.2580     9.7400    51.3190 c          1 ZNY       0.712000
      4 O            1.1330     9.7720    51.8040 o          1 ZNY      -0.732500
      5 CA           2.6000    10.6730    50.0800 c5         1 ZNY       0.025500
      6 CG           2.7670    12.9070    49.1880 c5         1 ZNY       0.142300
      7 N            1.5630    10.7650    48.9950 n7         1 ZNY      -0.854400
      8 O48          4.1470    12.9600    48.7350 os         1 ZNY      -0.450000
      9 C49          5.0260    13.8940    49.3860 c3         1 ZNY       0.166600
     10 C50          6.3960    13.8030    48.6950 c3         1 ZNY      -0.089100
     11 OXT          3.1080     8.9580    51.7250 o          1 ZNY      -0.732500
     12 H1           3.5610    12.3220    51.2010 hc         1 ZNY       0.044700
     13 H2           1.8090    12.4520    51.1140 hc         1 ZNY       0.044700
     14 H3           2.6040    11.6640    47.3650 h1         1 ZNY       0.022700
     15 H4           1.0880    12.4700    47.7950 h1         1 ZNY       0.022700
     16 H5           3.5610    10.3370    49.6630 h1         1 ZNY       0.058700
     17 H6           2.3540    13.9230    49.2350 h1         1 ZNY       0.012700
     18 H7           0.6660    10.9680    49.4570 hn         1 ZNY       0.432000
     19 H9           5.1440    13.6590    50.4510 h1         1 ZNY       0.010700
     20 H10          4.6390    14.9170    49.2960 h1         1 ZNY       0.010700
     21 H11          7.1000    14.5060    49.1560 hc         1 ZNY       0.033033
     22 H12          6.8090    12.7920    48.7870 hc         1 ZNY       0.033033
     23 H13          6.3100    14.0520    47.6300 hc         1 ZNY       0.033033
@<TRIPOS>BOND
     1     1     5 1   
     2     1     6 1   
     3     1    12 1   
     4     1    13 1   
     5     2     6 1   
     6     2     7 1   
     7     2    14 1   
     8     2    15 1   
     9     3     4 1   
    10     3     5 1   
    11     3    11 1   
    12     5     7 1   
    13     5    16 1   
    14     6     8 1   
    15     6    17 1   
    16     7    18 1   
    17     8     9 1   
    18     9    10 1   
    19     9    19 1   
    20     9    20 1   
    21    10    21 1   
    22    10    22 1   
    23    10    23 1   
@<TRIPOS>SUBSTRUCTURE
     1 ZNY         1 TEMP              0 ****  ****    0 ROOT
