@<TRIPOS>MOLECULE
ZO0
   39    41     1     0     0
SMALL
No Charge or Current Charge


@<TRIPOS>ATOM
      1 F13         -4.3700    -1.7340     0.7560 f          1 ZO0      -0.101667
      2 C11         -3.0450    -2.0030     0.6570 c3         1 ZO0       0.279700
      3 F14         -2.6880    -2.6090     1.8140 f          1 ZO0      -0.101667
      4 F12         -2.9080    -2.9220    -0.3270 f          1 ZO0      -0.101667
      5 C2          -2.1970    -0.7510     0.3800 ca         1 ZO0       0.083300
      6 N1          -2.8460     0.3900     0.0530 nb         1 ZO0      -0.161000
      7 C6          -2.1060     1.4920    -0.1870 ca         1 ZO0       0.041000
      8 C7          -2.7330     2.7070    -0.5200 ca         1 ZO0      -0.091000
      9 C8          -1.9740     3.8650    -0.7580 ca         1 ZO0      -0.081000
     10 C9          -0.5750     3.8190    -0.6570 ca         1 ZO0      -0.120000
     11 C10          0.0660     2.6140    -0.3270 ca         1 ZO0      -0.075000
     12 C5          -0.6930     1.4430    -0.1010 ca         1 ZO0      -0.153000
     13 C4          -0.1000     0.1990     0.2320 ca         1 ZO0       0.420900
     14 N3          -0.8560    -0.8890     0.4780 nb         1 ZO0      -0.269000
     15 N15          1.2970     0.0010     0.3160 nh         1 ZO0      -0.776300
     16 C16          1.8550    -0.7370     1.4790 c3         1 ZO0       0.215800
     17 C17          3.3310    -0.4470     1.8390 c3         1 ZO0      -0.098400
     18 C18          4.3270    -0.9680     0.7820 c3         1 ZO0       0.173800
     19 N19          4.6200    -0.0470    -0.3460 n3         1 ZO0      -0.727600
     20 C22          5.3490    -0.7260    -1.4410 c3         1 ZO0       0.155100
     21 C20          3.4630     0.7720    -0.8220 c3         1 ZO0       0.160800
     22 C21          2.0970     0.0410    -0.9420 c3         1 ZO0       0.186800
     23 H7          -3.8170     2.7540    -0.5920 ha         1 ZO0       0.140000
     24 H8          -2.4710     4.7990    -1.0130 ha         1 ZO0       0.121000
     25 H9           0.0130     4.7170    -0.8320 ha         1 ZO0       0.119000
     26 H10          1.1490     2.6020    -0.2400 ha         1 ZO0       0.120000
     27 H161         1.2550    -0.4940     2.3680 h1         1 ZO0       0.063200
     28 H162         1.7440    -1.8170     1.3120 h1         1 ZO0       0.063200
     29 H211         2.2610    -0.9770    -1.3210 h1         1 ZO0       0.055700
     30 H212         1.5180     0.5670    -1.7120 h1         1 ZO0       0.055700
     31 H171         3.4830     0.6210     2.0280 hc         1 ZO0       0.059700
     32 H172         3.5450    -0.9620     2.7830 hc         1 ZO0       0.059700
     33 H181         5.2720    -1.1940     1.2950 h1         1 ZO0       0.034200
     34 H182         3.9480    -1.9260     0.4000 h1         1 ZO0       0.034200
     35 H221         4.7130    -1.4780    -1.9280 h1         1 ZO0       0.031700
     36 H222         5.6710    -0.0030    -2.2020 h1         1 ZO0       0.031700
     37 H223         6.2450    -1.2310    -1.0560 h1         1 ZO0       0.031700
     38 H201         3.3230     1.6320    -0.1540 h1         1 ZO0       0.059200
     39 H202         3.7010     1.2000    -1.8060 h1         1 ZO0       0.059200
@<TRIPOS>BOND
     1     1     2 1   
     2     2     3 1   
     3     2     4 1   
     4     2     5 1   
     5     5     6 ar  
     6     5    14 ar  
     7     6     7 ar  
     8     7     8 ar  
     9     7    12 ar  
    10     8     9 ar  
    11     8    23 1   
    12     9    10 ar  
    13     9    24 1   
    14    10    11 ar  
    15    10    25 1   
    16    11    12 ar  
    17    11    26 1   
    18    12    13 ar  
    19    13    14 ar  
    20    13    15 1   
    21    15    16 1   
    22    15    22 1   
    23    16    17 1   
    24    16    27 1   
    25    16    28 1   
    26    17    18 1   
    27    17    31 1   
    28    17    32 1   
    29    18    19 1   
    30    18    33 1   
    31    18    34 1   
    32    19    20 1   
    33    19    21 1   
    34    20    35 1   
    35    20    36 1   
    36    20    37 1   
    37    21    22 1   
    38    21    38 1   
    39    21    39 1   
    40    22    29 1   
    41    22    30 1   
@<TRIPOS>SUBSTRUCTURE
     1 ZO0         1 TEMP              0 ****  ****    0 ROOT
