@<TRIPOS>MOLECULE
ZO0
   39    41     1     0     0
SMALL
bcc


@<TRIPOS>ATOM
      1 F13         -4.3550    -1.3590     1.2560 f          1 ZO0      -0.222967
      2 C11         -3.0540    -1.6110     1.3530 c3         1 ZO0       0.643600
      3 F14         -2.7610    -1.7420     2.6520 f          1 ZO0      -0.222967
      4 F12         -2.8290    -2.7990     0.7790 f          1 ZO0      -0.222967
      5 C2          -2.2060    -0.5330     0.7180 ca         1 ZO0       0.609300
      6 N1          -2.8200     0.4550     0.1510 nb         1 ZO0      -0.687000
      7 C6          -2.0090     1.4400    -0.3250 ca         1 ZO0       0.434600
      8 C7          -2.6070     2.6030    -0.8450 ca         1 ZO0      -0.174300
      9 C8          -1.8340     3.6720    -1.2140 ca         1 ZO0      -0.099000
     10 C9          -0.4410     3.6250    -1.0520 ca         1 ZO0      -0.138000
     11 C10          0.1640     2.4870    -0.5800 ca         1 ZO0      -0.093000
     12 C5          -0.6000     1.3490    -0.2540 ca         1 ZO0      -0.283600
     13 C4          -0.0710     0.0980     0.2460 ca         1 ZO0       0.749200
     14 N3          -0.9010    -0.7740     0.7960 nb         1 ZO0      -0.795000
     15 N15          1.2380    -0.2200     0.2110 nh         1 ZO0      -0.776300
     16 C16          1.7370    -1.3100     1.0380 c3         1 ZO0       0.215800
     17 C17          3.1330    -1.0570     1.6060 c3         1 ZO0      -0.098400
     18 C18          4.2810    -1.0970     0.6030 c3         1 ZO0       0.173800
     19 N19          4.5290     0.1480    -0.1090 n3         1 ZO0      -0.727600
     20 C22          5.3610    -0.0930    -1.2670 c3         1 ZO0       0.155100
     21 C20          3.3530     0.9440    -0.4010 c3         1 ZO0       0.160800
     22 C21          2.1200     0.1690    -0.8830 c3         1 ZO0       0.186800
     23 H7          -3.6870     2.6390    -0.9170 ha         1 ZO0       0.158000
     24 H8          -2.2990     4.5680    -1.6030 ha         1 ZO0       0.139000
     25 H9           0.1600     4.4920    -1.2920 ha         1 ZO0       0.137000
     26 H10          1.2330     2.4980    -0.4290 ha         1 ZO0       0.138000
     27 H161         1.0460    -1.4530     1.8640 h1         1 ZO0       0.063200
     28 H162         1.7450    -2.2420     0.4620 h1         1 ZO0       0.063200
     29 H211         2.4320    -0.7460    -1.3990 h1         1 ZO0       0.055700
     30 H212         1.5580     0.7360    -1.6190 h1         1 ZO0       0.055700
     31 H171         3.1490    -0.1320     2.1900 hc         1 ZO0       0.059700
     32 H172         3.3050    -1.8650     2.3200 hc         1 ZO0       0.059700
     33 H181         5.2010    -1.3680     1.1290 h1         1 ZO0       0.034200
     34 H182         4.0860    -1.9290    -0.0950 h1         1 ZO0       0.034200
     35 H221         4.8830    -0.7180    -2.0370 h1         1 ZO0       0.031700
     36 H222         5.6510     0.8510    -1.7300 h1         1 ZO0       0.031700
     37 H223         6.2770    -0.6040    -0.9610 h1         1 ZO0       0.031700
     38 H201         3.0690     1.5180     0.4870 h1         1 ZO0       0.059200
     39 H202         3.6300     1.6800    -1.1590 h1         1 ZO0       0.059200
@<TRIPOS>BOND
     1     1     2 1   
     2     2     3 1   
     3     2     4 1   
     4     2     5 1   
     5     5     6 ar  
     6     5    14 ar  
     7     6     7 ar  
     8     7     8 ar  
     9     7    12 ar  
    10     8     9 ar  
    11     8    23 1   
    12     9    10 ar  
    13     9    24 1   
    14    10    11 ar  
    15    10    25 1   
    16    11    12 ar  
    17    11    26 1   
    18    12    13 ar  
    19    13    14 ar  
    20    13    15 1   
    21    15    16 1   
    22    15    22 1   
    23    16    17 1   
    24    16    27 1   
    25    16    28 1   
    26    17    18 1   
    27    17    31 1   
    28    17    32 1   
    29    18    19 1   
    30    18    33 1   
    31    18    34 1   
    32    19    20 1   
    33    19    21 1   
    34    20    35 1   
    35    20    36 1   
    36    20    37 1   
    37    21    22 1   
    38    21    38 1   
    39    21    39 1   
    40    22    29 1   
    41    22    30 1   
@<TRIPOS>SUBSTRUCTURE
     1 ZO0         1 TEMP              0 ****  ****    0 ROOT
