@<TRIPOS>MOLECULE
ZO1
   17    17     1     0     0
SMALL
bcc


@<TRIPOS>ATOM
      1 C10          7.6010    13.1950    41.1420 c          1 ZO1       0.584500
      2 C20          7.4400    14.1950    40.0700 ca         1 ZO1      -0.206600
      3 C21          6.1620    14.6360    39.7600 ca         1 ZO1      -0.040000
      4 C22          5.9770    15.5790    38.7550 ca         1 ZO1      -0.211300
      5 C23          7.0730    16.0780    38.0650 ca         1 ZO1      -0.050000
      6 C24          8.3540    15.6330    38.3770 ca         1 ZO1      -0.148000
      7 C25          8.5410    14.6950    39.3740 ca         1 ZO1      -0.042000
      8 C32          4.5820    16.0020    38.4120 c3         1 ZO1       0.723200
      9 F3           4.5500    17.0520    37.5890 f          1 ZO1      -0.233300
     10 F1           3.8800    16.3310    39.5040 f          1 ZO1      -0.233300
     11 F2           3.9110    15.0100    37.8090 f          1 ZO1      -0.233300
     12 O08          8.6640    12.7520    41.5020 o          1 ZO1      -0.508100
     13 H1           6.6560    12.8660    41.6080 h4         1 ZO1      -0.004800
     14 H2           5.3160    14.2360    40.3090 ha         1 ZO1       0.148000
     15 H3           6.9490    16.8120    37.2800 ha         1 ZO1       0.152000
     16 H4           9.2020    16.0250    37.8340 ha         1 ZO1       0.146000
     17 H5           9.5380    14.3480    39.6150 ha         1 ZO1       0.157000
@<TRIPOS>BOND
     1     1     2 1   
     2     1    12 2   
     3     1    13 1   
     4     2     3 ar  
     5     2     7 ar  
     6     3     4 ar  
     7     3    14 1   
     8     4     5 ar  
     9     4     8 1   
    10     5     6 ar  
    11     5    15 1   
    12     6     7 ar  
    13     6    16 1   
    14     7    17 1   
    15     8     9 1   
    16     8    10 1   
    17     8    11 1   
@<TRIPOS>SUBSTRUCTURE
     1 ZO1         1 TEMP              0 ****  ****    0 ROOT
