@<TRIPOS>MOLECULE
ZO1
   17    17     1     0     0
SMALL
No Charge or Current Charge


@<TRIPOS>ATOM
      1 C10          7.6400    13.1920    41.2160 c          1 ZO1       0.584500
      2 C20          7.4520    14.1870    40.1040 ca         1 ZO1      -0.206600
      3 C21          6.1540    14.6320    39.7780 ca         1 ZO1      -0.022000
      4 C22          5.9520    15.5690    38.7410 ca         1 ZO1      -0.211300
      5 C23          7.0680    16.0440    38.0180 ca         1 ZO1      -0.032000
      6 C24          8.3620    15.6010    38.3400 ca         1 ZO1      -0.130000
      7 C25          8.5570    14.6780    39.3800 ca         1 ZO1      -0.024000
      8 C32          4.5360    16.0380    38.3890 c3         1 ZO1       0.359300
      9 F3           4.5230    17.2610    37.8110 f          1 ZO1      -0.112000
     10 F1           3.7390    16.1200    39.4790 f          1 ZO1      -0.112000
     11 F2           3.9380    15.1870    37.5260 f          1 ZO1      -0.112000
     12 O08          8.7370    12.7580    41.5550 o          1 ZO1      -0.508100
     13 H1           6.7130    12.8580    41.7330 h4         1 ZO1      -0.004800
     14 H2           5.3000    14.2470    40.3340 ha         1 ZO1       0.130000
     15 H3           6.9410    16.7550    37.2040 ha         1 ZO1       0.134000
     16 H4           9.2160    15.9750    37.7800 ha         1 ZO1       0.128000
     17 H5           9.5670    14.3450    39.6160 ha         1 ZO1       0.139000
@<TRIPOS>BOND
     1     1     2 1   
     2     1    12 2   
     3     1    13 1   
     4     2     3 ar  
     5     2     7 ar  
     6     3     4 ar  
     7     3    14 1   
     8     4     5 ar  
     9     4     8 1   
    10     5     6 ar  
    11     5    15 1   
    12     6     7 ar  
    13     6    16 1   
    14     7    17 1   
    15     8     9 1   
    16     8    10 1   
    17     8    11 1   
@<TRIPOS>SUBSTRUCTURE
     1 ZO1         1 TEMP              0 ****  ****    0 ROOT
