@<TRIPOS>MOLECULE
ZO4
   63    65     1     0     0
SMALL
bcc


@<TRIPOS>ATOM
      1 C1         -14.3310    25.1320   -12.5870 ca         1 ZO4      -0.086300
      2 C10        -12.9530    26.1560   -10.1910 c          1 ZO4       0.795100
      3 C11        -12.8160    25.3290   -12.5170 c3         1 ZO4       0.198700
      4 C12        -12.3360    26.5840   -13.2490 c3         1 ZO4      -0.100600
      5 C13        -12.1430    24.1110   -13.1590 c3         1 ZO4      -0.100600
      6 C17        -13.0940    26.5080    -7.7700 ca         1 ZO4       0.120600
      7 C18        -12.2740    26.8830    -6.7090 ca         1 ZO4      -0.217000
      8 C19        -12.8490    27.4340    -5.5760 ca         1 ZO4      -0.058000
      9 C2         -15.1380    25.8340   -13.4720 ca         1 ZO4      -0.106000
     10 C20        -14.2120    27.6540    -5.5130 ca         1 ZO4      -0.067600
     11 C21        -15.0620    27.2930    -6.5710 ca         1 ZO4       0.222600
     12 C22        -14.4710    26.6690    -7.6730 ca         1 ZO4      -0.204000
     13 C24        -17.3500    27.3410    -7.5550 c6         1 ZO4       0.402300
     14 C25        -17.0360    28.1620    -8.8290 c6         1 ZO4       0.085100
     15 C26        -17.5680    27.4140   -10.0680 c6         1 ZO4       0.172100
     16 C27        -18.8520    26.6690    -9.7560 c6         1 ZO4       0.113100
     17 C29        -18.5380    25.6190    -8.6820 c6         1 ZO4       0.104400
     18 C3         -16.5090    25.6020   -13.5070 ca         1 ZO4      -0.125000
     19 C4         -17.0880    24.6660   -12.6690 ca         1 ZO4      -0.118000
     20 C5         -16.2970    23.9300   -11.7810 ca         1 ZO4      -0.053800
     21 C6         -14.9280    24.1860   -11.7570 ca         1 ZO4      -0.113000
     22 C7         -16.8910    22.9220   -10.8740 ce         1 ZO4      -0.060400
     23 C8         -16.1980    22.6740    -9.5630 c3         1 ZO4      -0.060900
     24 C9         -17.9990    22.2520   -11.2000 c2         1 ZO4      -0.218000
     25 N1         -16.4090    27.5600    -6.5070 nu         1 ZO4      -0.773600
     26 N3         -12.3780    25.3560   -11.1220 ns         1 ZO4      -0.589900
     27 N4         -12.5360    25.9070    -8.9000 ns         1 ZO4      -0.507100
     28 O2         -13.7720    27.0180   -10.4670 o          1 ZO4      -0.620100
     29 O3         -17.4490    25.9590    -7.8440 os         1 ZO4      -0.437600
     30 O4         -17.6020    29.4450    -8.7290 oh         1 ZO4      -0.562800
     31 O5         -17.7680    28.2460   -11.1780 oh         1 ZO4      -0.570800
     32 O6         -19.8300    27.6010    -9.3520 oh         1 ZO4      -0.562800
     33 CL         -14.8850    28.4010    -4.0940 cl         1 ZO4      -0.125400
     34 H1         -12.8160    27.4880   -12.8810 hc         1 ZO4       0.047200
     35 H2         -11.2600    26.6860   -13.1130 hc         1 ZO4       0.047200
     36 H3         -12.5240    26.5090   -14.3210 hc         1 ZO4       0.047200
     37 H4         -12.4240    23.1860   -12.6540 hc         1 ZO4       0.047200
     38 H5         -12.4410    24.0270   -14.2040 hc         1 ZO4       0.047200
     39 H6         -11.0560    24.2080   -13.1240 hc         1 ZO4       0.047200
     40 H7         -11.2020    26.7480    -6.7640 ha         1 ZO4       0.134000
     41 H8         -12.2240    27.7210    -4.7410 ha         1 ZO4       0.144000
     42 H9         -14.7170    26.5840   -14.1290 ha         1 ZO4       0.134000
     43 H10        -15.0950    26.2810    -8.4610 ha         1 ZO4       0.163000
     44 H11        -18.3110    27.7060    -7.1700 h2         1 ZO4       0.068700
     45 H12        -15.9500    28.2540    -8.9570 h1         1 ZO4       0.060700
     46 H13        -16.8230    26.6400   -10.3020 h1         1 ZO4       0.054700
     47 H14        -19.1790    26.1330   -10.6580 h1         1 ZO4       0.049700
     48 H15        -19.4390    25.4290    -8.0830 h1         1 ZO4       0.050200
     49 H16        -18.2640    24.6810    -9.1670 h1         1 ZO4       0.050200
     50 H17        -17.1310    26.1730   -14.1840 ha         1 ZO4       0.136000
     51 H18        -18.1610    24.5270   -12.6840 ha         1 ZO4       0.131000
     52 H19        -14.3000    23.6360   -11.0660 ha         1 ZO4       0.125000
     53 H20        -16.7970    22.0320    -8.9200 hc         1 ZO4       0.045367
     54 H21        -15.2310    22.1870    -9.7040 hc         1 ZO4       0.045367
     55 H22        -16.0060    23.6090    -9.0330 hc         1 ZO4       0.045367
     56 H23        -18.4380    21.5330   -10.5190 ha         1 ZO4       0.115500
     57 H24        -18.4980    22.3790   -12.1520 ha         1 ZO4       0.115500
     58 H25        -16.8010    27.6580    -5.5850 hn         1 ZO4       0.442800
     59 H26        -11.8070    24.5850   -10.8120 hn         1 ZO4       0.307500
     60 H27        -11.6810    25.3900    -8.7610 hn         1 ZO4       0.315500
     61 H28        -17.0610    29.9540    -8.1170 ho         1 ZO4       0.403000
     62 H29        -16.9170    28.6020   -11.4510 ho         1 ZO4       0.413000
     63 H30        -20.6540    27.1260    -9.2040 ho         1 ZO4       0.393000
@<TRIPOS>BOND
     1     1     3 1   
     2     1     9 ar  
     3     1    21 ar  
     4     2    26 1   
     5     2    27 1   
     6     2    28 2   
     7     3     4 1   
     8     3     5 1   
     9     3    26 1   
    10     4    34 1   
    11     4    35 1   
    12     4    36 1   
    13     5    37 1   
    14     5    38 1   
    15     5    39 1   
    16     6     7 ar  
    17     6    12 ar  
    18     6    27 1   
    19     7     8 ar  
    20     7    40 1   
    21     8    10 ar  
    22     8    41 1   
    23     9    18 ar  
    24     9    42 1   
    25    10    11 ar  
    26    10    33 1   
    27    11    12 ar  
    28    11    25 1   
    29    12    43 1   
    30    13    14 1   
    31    13    25 1   
    32    13    29 1   
    33    13    44 1   
    34    14    15 1   
    35    14    30 1   
    36    14    45 1   
    37    15    16 1   
    38    15    31 1   
    39    15    46 1   
    40    16    17 1   
    41    16    32 1   
    42    16    47 1   
    43    17    29 1   
    44    17    48 1   
    45    17    49 1   
    46    18    19 ar  
    47    18    50 1   
    48    19    20 ar  
    49    19    51 1   
    50    20    21 ar  
    51    20    22 1   
    52    21    52 1   
    53    22    23 1   
    54    22    24 2   
    55    23    53 1   
    56    23    54 1   
    57    23    55 1   
    58    24    56 1   
    59    24    57 1   
    60    25    58 1   
    61    26    59 1   
    62    27    60 1   
    63    30    61 1   
    64    31    62 1   
    65    32    63 1   
@<TRIPOS>SUBSTRUCTURE
     1 ZO4         1 TEMP              0 ****  ****    0 ROOT
