@<TRIPOS>MOLECULE
ZO4
   63    65     1     0     0
SMALL
No Charge or Current Charge


@<TRIPOS>ATOM
      1 C1         -14.1620    25.0380   -12.7160 ca         1 ZO4      -0.086300
      2 C10        -12.7780    26.2720   -10.3770 c          1 ZO4       0.661100
      3 C11        -12.6190    25.1830   -12.6480 c3         1 ZO4       0.198700
      4 C12        -12.0570    26.3680   -13.4780 c3         1 ZO4      -0.100600
      5 C13        -11.9710    23.8760   -13.1630 c3         1 ZO4      -0.100600
      6 C17        -13.0450    26.5280    -7.8700 ca         1 ZO4       0.028000
      7 C18        -12.3160    26.4920    -6.6710 ca         1 ZO4      -0.199000
      8 C19        -12.8880    26.9730    -5.4810 ca         1 ZO4      -0.040000
      9 C2         -14.9740    25.8310   -13.5610 ca         1 ZO4      -0.088000
     10 C20        -14.1990    27.4810    -5.4810 ca         1 ZO4       0.024000
     11 C21        -14.9560    27.4990    -6.6760 ca         1 ZO4       0.361000
     12 C22        -14.3640    27.0200    -7.8580 ca         1 ZO4      -0.186000
     13 C24        -17.3740    27.5590    -7.5180 c6         1 ZO4       0.425500
     14 C25        -17.4080    28.3220    -8.8970 c6         1 ZO4       0.108300
     15 C26        -17.9710    27.3940   -10.0240 c6         1 ZO4       0.195300
     16 C27        -19.0140    26.3550    -9.4930 c6         1 ZO4       0.136300
     17 C29        -18.4030    25.5330    -8.3080 c6         1 ZO4       0.127600
     18 C3         -16.3720    25.7050   -13.5290 ca         1 ZO4      -0.107000
     19 C4         -16.9850    24.7930   -12.6570 ca         1 ZO4      -0.100000
     20 C5         -16.2030    23.9810   -11.8120 ca         1 ZO4      -0.053800
     21 C6         -14.7990    24.1090   -11.8590 ca         1 ZO4      -0.095000
     22 C7         -16.8420    23.0110   -10.8660 ce         1 ZO4      -0.060400
     23 C8         -16.1620    22.7800    -9.5250 c3         1 ZO4      -0.060900
     24 C9         -18.0090    22.3940   -11.1560 c2         1 ZO4      -0.318000
     25 N1         -16.2650    28.0170    -6.6720 nu         1 ZO4      -0.967200
     26 N3         -12.2250    25.3550   -11.2440 ns         1 ZO4      -0.522900
     27 N4         -12.4600    26.0160    -9.0550 ns         1 ZO4      -0.181000
     28 O2         -13.4920    27.1960   -10.7410 o          1 ZO4      -0.620100
     29 O3         -17.2200    26.1550    -7.7410 os         1 ZO4      -0.484000
     30 O4         -18.1410    29.5750    -8.8110 oh         1 ZO4      -0.685000
     31 O5         -18.5250    28.2170   -11.0620 oh         1 ZO4      -0.633000
     32 O6         -20.2240    27.0170    -9.0700 oh         1 ZO4      -0.685000
     33 Cl         -14.8790    28.0820    -3.9620 cl         1 ZO4      -0.217000
     34 H1         -12.5120    27.3210   -13.1830 hc         1 ZO4       0.047200
     35 H2         -10.9730    26.4590   -13.3360 hc         1 ZO4       0.047200
     36 H3         -12.2390    26.2180   -14.5490 hc         1 ZO4       0.047200
     37 H4         -12.2760    23.0120   -12.5610 hc         1 ZO4       0.047200
     38 H5         -12.2670    23.6840   -14.2010 hc         1 ZO4       0.047200
     39 H6         -10.8770    23.9400   -13.1270 hc         1 ZO4       0.047200
     40 H7         -11.3010    26.0980    -6.6600 ha         1 ZO4       0.116000
     41 H8         -12.3150    26.9530    -4.5560 ha         1 ZO4       0.126000
     42 H9         -14.5410    26.5610   -14.2390 ha         1 ZO4       0.116000
     43 H10        -14.9450    27.0020    -8.7690 ha         1 ZO4       0.145000
     44 H11        -18.3350    27.7250    -7.0010 h2         1 ZO4       0.068700
     45 H12        -16.3730    28.5540    -9.1820 h1         1 ZO4       0.060700
     46 H13        -17.1250    26.8180   -10.4290 h1         1 ZO4       0.054700
     47 H14        -19.2460    25.6540   -10.3080 h1         1 ZO4       0.049700
     48 H15        -19.1530    25.4010    -7.5150 h1         1 ZO4       0.050200
     49 H16        -18.1290    24.5320    -8.6640 h1         1 ZO4       0.050200
     50 H17        -16.9860    26.3290   -14.1750 ha         1 ZO4       0.118000
     51 H18        -18.0700    24.7310   -12.6330 ha         1 ZO4       0.113000
     52 H19        -14.1900    23.4890   -11.2080 ha         1 ZO4       0.107000
     53 H20        -16.8710    22.4370    -8.7630 hc         1 ZO4       0.045367
     54 H21        -15.3760    22.0200    -9.6060 hc         1 ZO4       0.045367
     55 H22        -15.7000    23.7000    -9.1450 hc         1 ZO4       0.045367
     56 H23        -18.4800    21.7040   -10.4560 ha         1 ZO4       0.165500
     57 H24        -18.5240    22.5400   -12.1050 ha         1 ZO4       0.165500
     58 H25        -16.5380    28.3770    -5.7570 hn         1 ZO4       0.498000
     59 H26        -11.6300    24.6480   -10.8360 hn         1 ZO4       0.307500
     60 H27        -11.7850    25.2790    -8.9050 hn         1 ZO4       0.149000
     61 H28        -17.7170    30.0970    -8.0880 ho         1 ZO4       0.502000
     62 H29        -18.5610    29.1070   -10.6340 ho         1 ZO4       0.452000
     63 H30        -20.4310    27.6730    -9.7750 ho         1 ZO4       0.492000
@<TRIPOS>BOND
     1     1     3 1   
     2     1     9 ar  
     3     1    21 ar  
     4     2    26 1   
     5     2    27 1   
     6     2    28 2   
     7     3     4 1   
     8     3     5 1   
     9     3    26 1   
    10     4    34 1   
    11     4    35 1   
    12     4    36 1   
    13     5    37 1   
    14     5    38 1   
    15     5    39 1   
    16     6     7 ar  
    17     6    12 ar  
    18     6    27 1   
    19     7     8 ar  
    20     7    40 1   
    21     8    10 ar  
    22     8    41 1   
    23     9    18 ar  
    24     9    42 1   
    25    10    11 ar  
    26    10    33 1   
    27    11    12 ar  
    28    11    25 1   
    29    12    43 1   
    30    13    14 1   
    31    13    25 1   
    32    13    29 1   
    33    13    44 1   
    34    14    15 1   
    35    14    30 1   
    36    14    45 1   
    37    15    16 1   
    38    15    31 1   
    39    15    46 1   
    40    16    17 1   
    41    16    32 1   
    42    16    47 1   
    43    17    29 1   
    44    17    48 1   
    45    17    49 1   
    46    18    19 ar  
    47    18    50 1   
    48    19    20 ar  
    49    19    51 1   
    50    20    21 ar  
    51    20    22 1   
    52    21    52 1   
    53    22    23 1   
    54    22    24 2   
    55    23    53 1   
    56    23    54 1   
    57    23    55 1   
    58    24    56 1   
    59    24    57 1   
    60    25    58 1   
    61    26    59 1   
    62    27    60 1   
    63    30    61 1   
    64    31    62 1   
    65    32    63 1   
@<TRIPOS>SUBSTRUCTURE
     1 ZO4         1 TEMP              0 ****  ****    0 ROOT
