@<TRIPOS>MOLECULE
ZO5
   45    48     1     0     0
SMALL
No Charge or Current Charge


@<TRIPOS>ATOM
      1 N1         -15.4740    17.1240    26.3840 ns         1 ZO5      -0.513900
      2 N3         -19.3610    13.7680    25.8540 n          1 ZO5      -0.408800
      3 C4         -15.8870    20.3310    26.8010 ca         1 ZO5      -0.093000
      4 C5         -16.3510    21.5540    26.2720 ca         1 ZO5      -0.095000
      5 C6         -15.9040    21.9330    25.0000 ca         1 ZO5       0.056100
      6 C7         -15.4640    22.9750    23.1000 c5         1 ZO5       0.370600
      7 C8         -15.0470    21.1500    24.2790 ca         1 ZO5       0.050100
      8 C10        -18.4510    15.2910    27.6690 c6         1 ZO5       0.085000
      9 C13        -17.3650    15.2870    25.3920 c6         1 ZO5       0.085000
     10 C15        -21.6880    12.8590    26.0400 cc         1 ZO5       0.062500
     11 C17        -23.8140    12.3660    26.5340 cd         1 ZO5      -0.195000
     12 C1         -16.4000    16.6730    27.2910 c          1 ZO5       0.650100
     13 C11        -19.1180    13.9430    27.3130 c6         1 ZO5       0.091500
     14 C12        -18.1070    13.9610    25.0820 c6         1 ZO5       0.091500
     15 C14        -20.3510    12.8760    25.3610 c          1 ZO5       0.544600
     16 C16        -22.7150    12.0070    25.7270 cd         1 ZO5      -0.104000
     17 C18        -23.4270    13.4340    27.2960 cc         1 ZO5       0.145900
     18 C2         -14.5090    18.1950    26.6350 c3         1 ZO5       0.157300
     19 C3         -14.9950    19.5150    26.0570 ca         1 ZO5      -0.123300
     20 C9         -14.5710    19.9300    24.7730 ca         1 ZO5      -0.089000
     21 N2         -17.2700    15.6600    26.8380 n          1 ZO5      -0.423800
     22 O1         -16.4630    17.1230    28.4250 o          1 ZO5      -0.646100
     23 O2         -16.2540    23.0650    24.3390 os         1 ZO5      -0.348100
     24 O3         -14.7470    21.6890    23.0690 os         1 ZO5      -0.350100
     25 O4         -20.1180    12.1750    24.3810 o          1 ZO5      -0.595100
     26 O5         -22.1220    13.7600    26.9970 os         1 ZO5      -0.249000
     27 H1         -15.4900    16.7020    25.4670 hn         1 ZO5       0.307500
     28 H4         -16.2210    20.0120    27.7860 ha         1 ZO5       0.135000
     29 H5         -17.0370    22.1850    26.8320 ha         1 ZO5       0.136000
     30 H7         -16.1310    23.0460    22.2320 h2         1 ZO5       0.067700
     31 H6         -14.7340    23.7930    23.0800 h2         1 ZO5       0.067700
     32 H9         -18.1620    15.2590    28.7290 h1         1 ZO5       0.057700
     33 H10        -19.2020    16.0870    27.5660 h1         1 ZO5       0.057700
     34 H16        -16.3600    15.2100    24.9540 h1         1 ZO5       0.057700
     35 H15        -17.8850    16.1020    24.8690 h1         1 ZO5       0.057700
     36 H18        -24.7920    11.8960    26.5470 ha         1 ZO5       0.148000
     37 H12        -18.4440    13.1380    27.6380 h1         1 ZO5       0.066700
     38 H11        -20.0250    13.8320    27.9140 h1         1 ZO5       0.066700
     39 H13        -17.4320    13.1220    25.3020 h1         1 ZO5       0.066700
     40 H14        -18.3190    13.9280    24.0030 h1         1 ZO5       0.066700
     41 H17        -22.6830    11.2090    24.9900 ha         1 ZO5       0.157000
     42 H19        -23.9430    14.0250    28.0400 h4         1 ZO5       0.056100
     43 H2         -14.3360    18.3010    27.7150 h1         1 ZO5       0.071200
     44 H3         -13.5500    17.9190    26.1760 h1         1 ZO5       0.071200
     45 H8         -13.8940    19.3220    24.1780 ha         1 ZO5       0.131000
@<TRIPOS>BOND
     1     1    12 1   
     2     1    18 1   
     3     1    27 1   
     4     2    13 1   
     5     2    14 1   
     6     2    15 1   
     7     3     4 ar  
     8     3    19 ar  
     9     3    28 1   
    10     4     5 ar  
    11     4    29 1   
    12     5     7 ar  
    13     5    23 1   
    14     6    23 1   
    15     6    24 1   
    16     6    30 1   
    17     6    31 1   
    18     7    20 ar  
    19     7    24 1   
    20     8    13 1   
    21     8    21 1   
    22     8    32 1   
    23     8    33 1   
    24     9    14 1   
    25     9    21 1   
    26     9    34 1   
    27     9    35 1   
    28    10    15 1   
    29    10    16 2   
    30    10    26 1   
    31    11    16 1   
    32    11    17 2   
    33    11    36 1   
    34    12    21 1   
    35    12    22 2   
    36    13    37 1   
    37    13    38 1   
    38    14    39 1   
    39    14    40 1   
    40    15    25 2   
    41    16    41 1   
    42    17    26 1   
    43    17    42 1   
    44    18    19 1   
    45    18    43 1   
    46    18    44 1   
    47    19    20 ar  
    48    20    45 1   
@<TRIPOS>SUBSTRUCTURE
     1 ZO5         1 TEMP              0 ****  ****    0 ROOT
