@<TRIPOS>MOLECULE
ZO5
   45    48     1     0     0
SMALL
abcg2


@<TRIPOS>ATOM
      1 N1         -15.6260    16.9970    26.0500 ns         1 ZO5      -0.513900
      2 N3         -19.2370    13.5210    25.9630 n          1 ZO5      -0.408800
      3 C4         -16.3240    19.9540    26.3230 ca         1 ZO5      -0.093000
      4 C5         -16.7650    21.2240    25.9260 ca         1 ZO5      -0.095000
      5 C6         -15.9450    21.9310    25.0760 ca         1 ZO5       0.056100
      6 C7         -15.0820    23.3630    23.5880 c5         1 ZO5       0.370600
      7 C8         -14.7380    21.4130    24.6320 ca         1 ZO5       0.050100
      8 C10        -18.6170    15.3980    27.4000 c6         1 ZO5       0.085000
      9 C13        -17.5350    15.1140    25.2140 c6         1 ZO5       0.085000
     10 C15        -21.5900    12.8800    26.1570 cc         1 ZO5       0.062500
     11 C17        -23.6630    12.5200    26.9230 cd         1 ZO5      -0.195000
     12 C1         -16.5300    16.5730    26.9800 c          1 ZO5       0.650100
     13 C11        -19.0600    13.9450    27.3500 c6         1 ZO5       0.091500
     14 C12        -18.0150    13.6650    25.1850 c6         1 ZO5       0.091500
     15 C14        -20.2980    12.8570    25.4430 c          1 ZO5       0.544600
     16 C16        -22.6160    11.9830    26.1180 cd         1 ZO5      -0.104000
     17 C18        -23.2120    13.7160    27.3850 cc         1 ZO5       0.145900
     18 C2         -14.6630    18.0500    26.3330 c3         1 ZO5       0.157300
     19 C3         -15.1120    19.4250    25.8830 ca         1 ZO5      -0.123300
     20 C9         -14.2930    20.1690    25.0160 ca         1 ZO5      -0.089000
     21 N2         -17.4220    15.6020    26.5840 n          1 ZO5      -0.423800
     22 O1         -16.5250    17.0110    28.1380 o          1 ZO5      -0.646100
     23 O2         -16.1200    23.1960    24.5680 os         1 ZO5      -0.348100
     24 O3         -14.1120    22.3290    23.8240 os         1 ZO5      -0.350100
     25 O4         -20.2370    12.2420    24.3720 o          1 ZO5      -0.595100
     26 O5         -21.9520    13.9520    26.9320 os         1 ZO5      -0.249000
     27 H1         -15.7940    16.8070    25.0770 hn         1 ZO5       0.307500
     28 H4         -16.9430    19.3690    26.9900 ha         1 ZO5       0.135000
     29 H5         -17.7040    21.6320    26.2750 ha         1 ZO5       0.136000
     30 H7         -15.5060    23.2410    22.5870 h2         1 ZO5       0.067700
     31 H6         -14.6140    24.3370    23.7160 h2         1 ZO5       0.067700
     32 H9         -18.3880    15.6800    28.4220 h1         1 ZO5       0.057700
     33 H10        -19.4320    16.0360    27.0350 h1         1 ZO5       0.057700
     34 H16        -16.5640    15.1340    24.7260 h1         1 ZO5       0.057700
     35 H15        -18.2290    15.7390    24.6390 h1         1 ZO5       0.057700
     36 H18        -24.6250    12.0780    27.1250 ha         1 ZO5       0.148000
     37 H12        -18.2860    13.3130    27.7980 h1         1 ZO5       0.066700
     38 H11        -19.9750    13.8180    27.9130 h1         1 ZO5       0.066700
     39 H13        -17.2410    13.0130    25.6050 h1         1 ZO5       0.066700
     40 H14        -18.2080    13.3620    24.1610 h1         1 ZO5       0.066700
     41 H17        -22.6170    11.0500    25.5790 ha         1 ZO5       0.157000
     42 H19        -23.6410    14.4820    28.0070 h4         1 ZO5       0.056100
     43 H2         -14.4830    18.0410    27.4070 h1         1 ZO5       0.071200
     44 H3         -13.7250    17.7980    25.8380 h1         1 ZO5       0.071200
     45 H8         -13.3490    19.7740    24.6620 ha         1 ZO5       0.131000
@<TRIPOS>BOND
     1     1    12 1   
     2     1    18 1   
     3     1    27 1   
     4     2    13 1   
     5     2    14 1   
     6     2    15 1   
     7     3     4 ar  
     8     3    19 ar  
     9     3    28 1   
    10     4     5 ar  
    11     4    29 1   
    12     5     7 ar  
    13     5    23 1   
    14     6    23 1   
    15     6    24 1   
    16     6    30 1   
    17     6    31 1   
    18     7    20 ar  
    19     7    24 1   
    20     8    13 1   
    21     8    21 1   
    22     8    32 1   
    23     8    33 1   
    24     9    14 1   
    25     9    21 1   
    26     9    34 1   
    27     9    35 1   
    28    10    15 1   
    29    10    16 2   
    30    10    26 1   
    31    11    16 1   
    32    11    17 2   
    33    11    36 1   
    34    12    21 1   
    35    12    22 2   
    36    13    37 1   
    37    13    38 1   
    38    14    39 1   
    39    14    40 1   
    40    15    25 2   
    41    16    41 1   
    42    17    26 1   
    43    17    42 1   
    44    18    19 1   
    45    18    43 1   
    46    18    44 1   
    47    19    20 ar  
    48    20    45 1   
@<TRIPOS>SUBSTRUCTURE
     1 ZO5         1 TEMP              0 ****  ****    0 ROOT
