@<TRIPOS>MOLECULE
ZO6
   19    21     1     0     0
SMALL
abcg2


@<TRIPOS>ATOM
      1 C9          -2.7150     1.0110     0.0120 cc         1 ZO6      -0.269800
      2 C8          -3.1740    -0.2620     0.0210 cd         1 ZO6      -0.171400
      3 S           -1.9090    -1.4380     0.0240 ss         1 ZO6       0.119400
      4 C7          -0.7100    -0.2040     0.0130 ca         1 ZO6      -0.208000
      5 C            0.6960    -0.3370     0.0090 ca         1 ZO6      -0.036000
      6 C6          -1.2870     1.0640     0.0070 ca         1 ZO6       0.347800
      7 N1          -0.5570     2.2080    -0.0010 nb         1 ZO6      -0.621000
      8 C5           0.7360     2.1050    -0.0040 ca         1 ZO6       0.359900
      9 C4           1.4360     0.8610    -0.0000 ca         1 ZO6      -0.068000
     10 C3           2.8380     0.7710    -0.0050 ca         1 ZO6      -0.129000
     11 C2           3.4200    -0.4690    -0.0020 ca         1 ZO6       0.323900
     12 N            2.7150    -1.6170     0.0070 nb         1 ZO6      -0.652000
     13 C1           1.4100    -1.5540     0.0120 ca         1 ZO6       0.356900
     14 H9          -3.3490     1.8850     0.0090 ha         1 ZO6       0.220000
     15 H8          -4.2010    -0.5930     0.0270 h4         1 ZO6       0.222000
     16 H1           0.8700    -2.4970     0.0200 h4         1 ZO6       0.025100
     17 H5           1.3110     3.0260    -0.0110 h4         1 ZO6       0.026100
     18 H3           3.4470     1.6650    -0.0130 ha         1 ZO6       0.127000
     19 H2           4.4980    -0.5710    -0.0070 h4         1 ZO6       0.024100
@<TRIPOS>BOND
     1     1     2 2   
     2     1     6 1   
     3     1    14 1   
     4     2     3 1   
     5     2    15 1   
     6     3     4 1   
     7     4     5 ar  
     8     4     6 ar  
     9     5     9 ar  
    10     5    13 ar  
    11     6     7 ar  
    12     7     8 ar  
    13     8     9 ar  
    14     8    17 1   
    15     9    10 ar  
    16    10    11 ar  
    17    10    18 1   
    18    11    12 ar  
    19    11    19 1   
    20    12    13 ar  
    21    13    16 1   
@<TRIPOS>SUBSTRUCTURE
     1 ZO6         1 TEMP              0 ****  ****    0 ROOT
