@<TRIPOS>MOLECULE
ZO6
   19    21     1     0     0
SMALL
No Charge or Current Charge


@<TRIPOS>ATOM
      1 C9          -2.7190     1.0210     0.0130 cc         1 ZO6      -0.269800
      2 C8          -3.1960    -0.2820     0.0220 cd         1 ZO6      -0.171400
      3 S           -1.8950    -1.5090     0.0240 ss         1 ZO6       0.119400
      4 C7          -0.7040    -0.1890     0.0120 ca         1 ZO6      -0.208000
      5 C            0.6960    -0.3150     0.0080 ca         1 ZO6      -0.036000
      6 C6          -1.2820     1.0670     0.0080 ca         1 ZO6       0.347800
      7 N1          -0.5920     2.2220    -0.0010 nb         1 ZO6      -0.621000
      8 C5           0.7630     2.1200    -0.0050 ca         1 ZO6       0.359900
      9 C4           1.4430     0.8790    -0.0010 ca         1 ZO6      -0.068000
     10 C3           2.8460     0.7850    -0.0060 ca         1 ZO6      -0.129000
     11 C2           3.4440    -0.4890    -0.0010 ca         1 ZO6       0.323900
     12 N            2.7320    -1.6430     0.0080 nb         1 ZO6      -0.652000
     13 C1           1.3780    -1.5510     0.0120 ca         1 ZO6       0.356900
     14 H9          -3.3550     1.9010     0.0110 ha         1 ZO6       0.220000
     15 H8          -4.2320    -0.6110     0.0270 h4         1 ZO6       0.222000
     16 H1           0.8330    -2.4940     0.0190 h4         1 ZO6       0.025100
     17 H5           1.3170     3.0580    -0.0120 h4         1 ZO6       0.026100
     18 H3           3.4700     1.6750    -0.0130 ha         1 ZO6       0.127000
     19 H2           4.5290    -0.5910    -0.0050 h4         1 ZO6       0.024100
@<TRIPOS>BOND
     1     1     2 2   
     2     1     6 1   
     3     1    14 1   
     4     2     3 1   
     5     2    15 1   
     6     3     4 1   
     7     4     5 ar  
     8     4     6 ar  
     9     5     9 ar  
    10     5    13 ar  
    11     6     7 ar  
    12     7     8 ar  
    13     8     9 ar  
    14     8    17 1   
    15     9    10 ar  
    16    10    11 ar  
    17    10    18 1   
    18    11    12 ar  
    19    11    19 1   
    20    12    13 ar  
    21    13    16 1   
@<TRIPOS>SUBSTRUCTURE
     1 ZO6         1 TEMP              0 ****  ****    0 ROOT
