@<TRIPOS>MOLECULE
ZO7
   63    65     1     0     0
SMALL
No Charge or Current Charge


@<TRIPOS>ATOM
      1 C1         -17.5270   -24.6240    -4.1930 ca         1 ZO7      -0.080300
      2 C10        -15.3630   -25.9700    -5.9490 c          1 ZO7       0.663100
      3 C11        -16.4150   -25.5690    -3.6740 c3         1 ZO7       0.203700
      4 C12        -16.8900   -27.0250    -3.4180 c3         1 ZO7      -0.104100
      5 C13        -15.8720   -24.9970    -2.3430 c3         1 ZO7      -0.104100
      6 C17        -13.7050   -26.1430    -7.8980 ca         1 ZO7       0.043000
      7 C18        -12.3720   -25.8370    -8.2230 ca         1 ZO7      -0.222000
      8 C19        -11.8710   -26.0860    -9.5120 ca         1 ZO7      -0.032000
      9 C2         -18.8920   -25.0000    -4.2330 ca         1 ZO7      -0.088000
     10 C20        -12.7050   -26.6440   -10.4920 ca         1 ZO7       0.009000
     11 C21        -14.0490   -26.9540   -10.1830 ca         1 ZO7       0.356000
     12 C22        -14.5370   -26.7080    -8.8890 ca         1 ZO7      -0.203000
     13 C24        -16.2430   -27.0490   -11.4130 c6         1 ZO7       0.405500
     14 C25        -16.6440   -27.2370   -12.9280 c6         1 ZO7       0.139300
     15 C26        -16.8760   -28.7560   -13.2600 c6         1 ZO7       0.189300
     16 C27        -17.8300   -29.4220   -12.2250 c6         1 ZO7       0.098300
     17 C29        -17.2710   -29.1720   -10.7970 c6         1 ZO7       0.117600
     18 C3         -19.8650   -24.1070    -4.7110 ca         1 ZO7      -0.112000
     19 C4         -19.4980   -22.8270    -5.1520 ca         1 ZO7      -0.096000
     20 C5         -18.1500   -22.4250    -5.1180 ca         1 ZO7      -0.050800
     21 C6         -17.1790   -23.3270    -4.6380 ca         1 ZO7      -0.088000
     22 C7         -17.7550   -21.0620    -5.5870 ce         1 ZO7      -0.052400
     23 C8         -16.8060   -20.3430    -4.9500 c2         1 ZO7      -0.318000
     24 C9         -18.4100   -20.5380    -6.8540 c3         1 ZO7      -0.054900
     25 N1         -14.8740   -27.5160   -11.1610 nu         1 ZO7      -0.985200
     26 N3         -15.2970   -25.5970    -4.6230 ns         1 ZO7      -0.532900
     27 N4         -14.1310   -25.8690    -6.5720 ns         1 ZO7      -0.166000
     28 O2         -16.3950   -26.3360    -6.4920 o          1 ZO7      -0.607100
     29 O3         -17.1530   -27.7530   -10.5440 os         1 ZO7      -0.428000
     30 O4         -15.6550   -26.6520   -13.8260 oh         1 ZO7      -0.707000
     31 O5         -17.4470   -28.9250   -14.5700 oh         1 ZO7      -0.627000
     32 O6         -19.1670   -28.8890   -12.3790 oh         1 ZO7      -0.697000
     33 Cl         -12.0470   -26.9480   -12.1060 cl         1 ZO7      -0.217000
     34 H1         -17.6240   -27.0620    -2.6040 hc         1 ZO7       0.047033
     35 H2         -17.3480   -27.4640    -4.3110 hc         1 ZO7       0.047033
     36 H3         -16.0450   -27.6620    -3.1280 hc         1 ZO7       0.047033
     37 H4         -16.6740   -24.9280    -1.5980 hc         1 ZO7       0.047033
     38 H5         -15.0820   -25.6380    -1.9320 hc         1 ZO7       0.047033
     39 H6         -15.4540   -23.9930    -2.4800 hc         1 ZO7       0.047033
     40 H7         -11.7150   -25.4040    -7.4720 ha         1 ZO7       0.111000
     41 H8         -10.8380   -25.8460    -9.7510 ha         1 ZO7       0.124000
     42 H9         -19.2200   -25.9790    -3.8990 ha         1 ZO7       0.113000
     43 H10        -15.5620   -26.9740    -8.6670 ha         1 ZO7       0.165000
     44 H11        -16.3120   -25.9740   -11.1800 h2         1 ZO7       0.085700
     45 H12        -17.6100   -26.7260   -13.0600 h1         1 ZO7       0.080700
     46 H13        -15.9050   -29.2700   -13.2110 h1         1 ZO7       0.043700
     47 H14        -17.8400   -30.5070   -12.4030 h1         1 ZO7       0.033700
     48 H15        -17.9430   -29.6120   -10.0470 h1         1 ZO7       0.059200
     49 H16        -16.2900   -29.6560   -10.6800 h1         1 ZO7       0.059200
     50 H17        -20.9100   -24.4090    -4.7360 ha         1 ZO7       0.112000
     51 H18        -20.2660   -22.1460    -5.5120 ha         1 ZO7       0.112000
     52 H19        -16.1370   -23.0200    -4.6230 ha         1 ZO7       0.108000
     53 H20        -16.3150   -20.7060    -4.0480 ha         1 ZO7       0.163000
     54 H21        -16.4990   -19.3590    -5.3050 ha         1 ZO7       0.163000
     55 H22        -18.6820   -21.3550    -7.5340 hc         1 ZO7       0.042033
     56 H23        -19.3240   -19.9770    -6.6220 hc         1 ZO7       0.042033
     57 H24        -17.7410   -19.8670    -7.4060 hc         1 ZO7       0.042033
     58 H25        -14.3580   -27.6880   -12.0250 hn         1 ZO7       0.500000
     59 H26        -14.3880   -25.3150    -4.2810 hn         1 ZO7       0.308500
     60 H27        -13.3880   -25.5360    -5.9720 hn         1 ZO7       0.141000
     61 H28        -15.7390   -25.6720   -13.7600 ho         1 ZO7       0.510000
     62 H29        -18.4160   -28.8820   -14.4070 ho         1 ZO7       0.442000
     63 H30        -19.6980   -29.2010   -11.6090 ho         1 ZO7       0.504000
@<TRIPOS>BOND
     1     1     3 1   
     2     1     9 ar  
     3     1    21 ar  
     4     2    26 1   
     5     2    27 1   
     6     2    28 2   
     7     3     4 1   
     8     3     5 1   
     9     3    26 1   
    10     4    34 1   
    11     4    35 1   
    12     4    36 1   
    13     5    37 1   
    14     5    38 1   
    15     5    39 1   
    16     6     7 ar  
    17     6    12 ar  
    18     6    27 1   
    19     7     8 ar  
    20     7    40 1   
    21     8    10 ar  
    22     8    41 1   
    23     9    18 ar  
    24     9    42 1   
    25    10    11 ar  
    26    10    33 1   
    27    11    12 ar  
    28    11    25 1   
    29    12    43 1   
    30    13    14 1   
    31    13    25 1   
    32    13    29 1   
    33    13    44 1   
    34    14    15 1   
    35    14    30 1   
    36    14    45 1   
    37    15    16 1   
    38    15    31 1   
    39    15    46 1   
    40    16    17 1   
    41    16    32 1   
    42    16    47 1   
    43    17    29 1   
    44    17    48 1   
    45    17    49 1   
    46    18    19 ar  
    47    18    50 1   
    48    19    20 ar  
    49    19    51 1   
    50    20    21 ar  
    51    20    22 1   
    52    21    52 1   
    53    22    23 2   
    54    22    24 1   
    55    23    53 1   
    56    23    54 1   
    57    24    55 1   
    58    24    56 1   
    59    24    57 1   
    60    25    58 1   
    61    26    59 1   
    62    27    60 1   
    63    30    61 1   
    64    31    62 1   
    65    32    63 1   
@<TRIPOS>SUBSTRUCTURE
     1 ZO7         1 TEMP              0 ****  ****    0 ROOT
