@<TRIPOS>MOLECULE
ZO7
   63    65     1     0     0
SMALL
abcg2


@<TRIPOS>ATOM
      1 C1         -17.5940   -24.6010    -4.3760 ca         1 ZO7      -0.080300
      2 C10        -15.4440   -25.9900    -5.9740 c          1 ZO7       0.663100
      3 C11        -16.6610   -25.6820    -3.8330 c3         1 ZO7       0.203700
      4 C12        -17.3250   -27.0580    -3.7300 c3         1 ZO7      -0.104100
      5 C13        -16.2180   -25.2500    -2.4300 c3         1 ZO7      -0.104100
      6 C17        -13.8270   -26.0770    -7.8690 ca         1 ZO7       0.043000
      7 C18        -12.5260   -25.6920    -8.2050 ca         1 ZO7      -0.222000
      8 C19        -12.0960   -25.7920    -9.5140 ca         1 ZO7      -0.032000
      9 C2         -18.9770   -24.7510    -4.3840 ca         1 ZO7      -0.088000
     10 C20        -12.9450   -26.2600   -10.4980 ca         1 ZO7       0.009000
     11 C21        -14.2550   -26.6590   -10.1930 ca         1 ZO7       0.356000
     12 C22        -14.6740   -26.5720    -8.8590 ca         1 ZO7      -0.203000
     13 C24        -16.5080   -27.2080   -11.0240 c6         1 ZO7       0.405500
     14 C25        -17.1830   -27.2320   -12.4130 c6         1 ZO7       0.139300
     15 C26        -16.9470   -28.5720   -13.1000 c6         1 ZO7       0.189300
     16 C27        -17.3660   -29.7150   -12.1730 c6         1 ZO7       0.098300
     17 C29        -16.6370   -29.5590   -10.8480 c6         1 ZO7       0.117600
     18 C3         -19.7910   -23.7210    -4.8360 ca         1 ZO7      -0.112000
     19 C4         -19.2410   -22.5320    -5.2850 ca         1 ZO7      -0.096000
     20 C5         -17.8570   -22.3460    -5.2710 ca         1 ZO7      -0.050800
     21 C6         -17.0570   -23.3960    -4.8190 ca         1 ZO7      -0.088000
     22 C7         -17.2560   -21.0760    -5.7410 ce         1 ZO7      -0.052400
     23 C8         -16.0930   -20.6270    -5.2610 c2         1 ZO7      -0.318000
     24 C9         -18.0110   -20.2960    -6.7800 c3         1 ZO7      -0.054900
     25 N1         -15.0830   -27.1400   -11.1770 nu         1 ZO7      -0.985200
     26 N3         -15.4480   -25.7590    -4.6400 ns         1 ZO7      -0.532900
     27 N4         -14.1830   -25.9650    -6.5280 ns         1 ZO7      -0.166000
     28 O2         -16.4600   -26.1940    -6.6210 o          1 ZO7      -0.607100
     29 O3         -16.9140   -28.3100   -10.2520 os         1 ZO7      -0.428000
     30 O4         -16.6800   -26.2150   -13.2420 oh         1 ZO7      -0.707000
     31 O5         -17.6490   -28.5650   -14.3160 oh         1 ZO7      -0.627000
     32 O6         -18.7650   -29.6770   -12.0260 oh         1 ZO7      -0.697000
     33 CL         -12.3770   -26.3430   -12.1400 cl         1 ZO7      -0.217000
     34 H1         -18.1340   -27.0530    -2.9990 hc         1 ZO7       0.047033
     35 H2         -17.7300   -27.3930    -4.6830 hc         1 ZO7       0.047033
     36 H3         -16.5860   -27.7860    -3.3940 hc         1 ZO7       0.047033
     37 H4         -17.0850   -25.1510    -1.7790 hc         1 ZO7       0.047033
     38 H5         -15.5480   -25.9920    -1.9900 hc         1 ZO7       0.047033
     39 H6         -15.7020   -24.2900    -2.4550 hc         1 ZO7       0.047033
     40 H7         -11.8510   -25.3140    -7.4470 ha         1 ZO7       0.111000
     41 H8         -11.0900   -25.4900    -9.7720 ha         1 ZO7       0.124000
     42 H9         -19.4360   -25.6720    -4.0510 ha         1 ZO7       0.113000
     43 H10        -15.6590   -26.9120    -8.5930 ha         1 ZO7       0.165000
     44 H11        -16.8760   -26.3350   -10.4690 h2         1 ZO7       0.085700
     45 H12        -18.2590   -27.1080   -12.2430 h1         1 ZO7       0.080700
     46 H13        -15.8670   -28.6950   -13.2750 h1         1 ZO7       0.043700
     47 H14        -17.0390   -30.6650   -12.6230 h1         1 ZO7       0.033700
     48 H15        -16.9610   -30.3230   -10.1380 h1         1 ZO7       0.059200
     49 H16        -15.5600   -29.6970   -11.0060 h1         1 ZO7       0.059200
     50 H17        -20.8650   -23.8520    -4.8440 ha         1 ZO7       0.112000
     51 H18        -19.8990   -21.7460    -5.6340 ha         1 ZO7       0.112000
     52 H19        -15.9800   -23.2810    -4.8420 ha         1 ZO7       0.108000
     53 H20        -15.5450   -21.1430    -4.4830 ha         1 ZO7       0.163000
     54 H21        -15.6550   -19.7080    -5.6280 ha         1 ZO7       0.163000
     55 H22        -18.2740   -20.9220    -7.6350 hc         1 ZO7       0.042033
     56 H23        -18.9450   -19.8940    -6.3830 hc         1 ZO7       0.042033
     57 H24        -17.4200   -19.4550    -7.1400 hc         1 ZO7       0.042033
     58 H25        -14.7640   -26.9680   -12.1180 hn         1 ZO7       0.500000
     59 H26        -14.5730   -25.6200    -4.1580 hn         1 ZO7       0.308500
     60 H27        -13.4250   -25.6930    -5.9210 hn         1 ZO7       0.141000
     61 H28        -16.9570   -25.3630   -12.8880 ho         1 ZO7       0.510000
     62 H29        -17.4510   -29.3820   -14.7840 ho         1 ZO7       0.442000
     63 H30        -19.0290   -30.3980   -11.4450 ho         1 ZO7       0.504000
@<TRIPOS>BOND
     1     1     3 1   
     2     1     9 ar  
     3     1    21 ar  
     4     2    26 1   
     5     2    27 1   
     6     2    28 2   
     7     3     4 1   
     8     3     5 1   
     9     3    26 1   
    10     4    34 1   
    11     4    35 1   
    12     4    36 1   
    13     5    37 1   
    14     5    38 1   
    15     5    39 1   
    16     6     7 ar  
    17     6    12 ar  
    18     6    27 1   
    19     7     8 ar  
    20     7    40 1   
    21     8    10 ar  
    22     8    41 1   
    23     9    18 ar  
    24     9    42 1   
    25    10    11 ar  
    26    10    33 1   
    27    11    12 ar  
    28    11    25 1   
    29    12    43 1   
    30    13    14 1   
    31    13    25 1   
    32    13    29 1   
    33    13    44 1   
    34    14    15 1   
    35    14    30 1   
    36    14    45 1   
    37    15    16 1   
    38    15    31 1   
    39    15    46 1   
    40    16    17 1   
    41    16    32 1   
    42    16    47 1   
    43    17    29 1   
    44    17    48 1   
    45    17    49 1   
    46    18    19 ar  
    47    18    50 1   
    48    19    20 ar  
    49    19    51 1   
    50    20    21 ar  
    51    20    22 1   
    52    21    52 1   
    53    22    23 2   
    54    22    24 1   
    55    23    53 1   
    56    23    54 1   
    57    24    55 1   
    58    24    56 1   
    59    24    57 1   
    60    25    58 1   
    61    26    59 1   
    62    27    60 1   
    63    30    61 1   
    64    31    62 1   
    65    32    63 1   
@<TRIPOS>SUBSTRUCTURE
     1 ZO7         1 TEMP              0 ****  ****    0 ROOT
