@<TRIPOS>MOLECULE
ZO8
   19    21     1     0     0
SMALL
No Charge or Current Charge


@<TRIPOS>ATOM
      1 CAO          0.8360     0.4570     0.0340 ca         1 ZO8       0.057000
      2 CAN          1.4140    -0.8240     0.0300 ca         1 ZO8      -0.166000
      3 CAH          2.8110    -0.9440     0.0370 ca         1 ZO8       0.379900
      4 CAF          3.0740     1.3640     0.0530 ca         1 ZO8       0.343900
      5 CAL          1.6850     1.5750     0.0470 ca         1 ZO8      -0.154000
      6 CAC         -2.7760     1.4160     0.0190 cc         1 ZO8      -0.184400
      7 CAG         -1.4230     1.6930     0.0290 cd         1 ZO8      -0.159200
      8 CAM         -0.5650     0.5260     0.0270 ca         1 ZO8      -0.113800
      9 CAJ         -1.3090    -0.6410     0.0150 ca         1 ZO8       0.358300
     10 NAC         -0.7730    -1.8820     0.0100 nb         1 ZO8      -0.630000
     11 SAK         -3.0730    -0.3470     0.0060 ss         1 ZO8      -0.070900
     12 CAK          0.5820    -1.9610     0.0180 ca         1 ZO8       0.382900
     13 N            3.6360     0.1310     0.0490 nb         1 ZO8      -0.668000
     14 HAL          1.2940     2.5870     0.0510 ha         1 ZO8       0.129000
     15 HAH          3.2900    -1.9220     0.0340 h4         1 ZO8       0.022100
     16 HAK          1.0060    -2.9640     0.0140 h4         1 ZO8       0.026100
     17 HAF          3.7610     2.2090     0.0630 h4         1 ZO8       0.021100
     18 HAC         -3.6150     2.1050     0.0180 h4         1 ZO8       0.221000
     19 HAG         -1.0450     2.7130     0.0370 ha         1 ZO8       0.206000
@<TRIPOS>BOND
     1     1     2 ar  
     2     1     5 ar  
     3     1     8 ar  
     4     2     3 ar  
     5     2    12 ar  
     6     3    13 ar  
     7     3    15 1   
     8     4     5 ar  
     9     4    13 ar  
    10     4    17 1   
    11     5    14 1   
    12     6     7 2   
    13     6    11 1   
    14     6    18 1   
    15     7     8 1   
    16     7    19 1   
    17     8     9 ar  
    18     9    10 ar  
    19     9    11 1   
    20    10    12 ar  
    21    12    16 1   
@<TRIPOS>SUBSTRUCTURE
     1 ZO8         1 TEMP              0 ****  ****    0 ROOT
