@<TRIPOS>MOLECULE
ZO8
   19    21     1     0     0
SMALL
bcc


@<TRIPOS>ATOM
      1 CAO          0.8370     0.4930     0.0350 ca         1 ZO8       0.057000
      2 CAN          1.3960    -0.8010     0.0300 ca         1 ZO8      -0.296600
      3 CAH          2.8000    -0.9250     0.0360 ca         1 ZO8       0.445200
      4 CAF          3.0720     1.3330     0.0530 ca         1 ZO8       0.409200
      5 CAL          1.7250     1.5830     0.0480 ca         1 ZO8      -0.237300
      6 CAC         -2.7550     1.3510     0.0180 cc         1 ZO8      -0.134400
      7 CAG         -1.4470     1.7080     0.0290 cd         1 ZO8      -0.109200
      8 CAM         -0.5810     0.5760     0.0270 ca         1 ZO8      -0.179100
      9 CAJ         -1.2840    -0.6260     0.0160 ca         1 ZO8       0.423600
     10 NAC         -0.7570    -1.8620     0.0120 nb         1 ZO8      -0.630000
     11 SAK         -2.9920    -0.3560     0.0070 ss         1 ZO8      -0.070900
     12 CAK          0.5420    -1.9380     0.0180 ca         1 ZO8       0.448200
     13 N            3.6150     0.0980     0.0480 nb         1 ZO8      -0.668000
     14 HAL          1.3650     2.6030     0.0530 ha         1 ZO8       0.147000
     15 HAH          3.2440    -1.9160     0.0320 h4         1 ZO8       0.022100
     16 HAK          0.9820    -2.9300     0.0140 h4         1 ZO8       0.026100
     17 HAF          3.7750     2.1570     0.0630 h4         1 ZO8       0.021100
     18 HAC         -3.6110     2.0080     0.0160 h4         1 ZO8       0.171000
     19 HAG         -1.1160     2.7360     0.0360 ha         1 ZO8       0.156000
@<TRIPOS>BOND
     1     1     2 ar  
     2     1     5 ar  
     3     1     8 ar  
     4     2     3 ar  
     5     2    12 ar  
     6     3    13 ar  
     7     3    15 1   
     8     4     5 ar  
     9     4    13 ar  
    10     4    17 1   
    11     5    14 1   
    12     6     7 2   
    13     6    11 1   
    14     6    18 1   
    15     7     8 1   
    16     7    19 1   
    17     8     9 ar  
    18     9    10 ar  
    19     9    11 1   
    20    10    12 ar  
    21    12    16 1   
@<TRIPOS>SUBSTRUCTURE
     1 ZO8         1 TEMP              0 ****  ****    0 ROOT
