@<TRIPOS>MOLECULE
ZO9
   32    35     1     0     0
SMALL
No Charge or Current Charge


@<TRIPOS>ATOM
      1 C           -3.9110     1.7640    -0.1060 ca         1 ZO9      -0.129000
      2 N           -0.1740     1.7880    -0.1870 nc         1 ZO9      -0.595100
      3 O            3.9310    -0.2150     0.2440 os         1 ZO9       0.111600
      4 C1          -4.0820     0.4210     0.2980 ca         1 ZO9      -0.091000
      5 N1          -0.4430    -0.4130     0.4800 na         1 ZO9      -0.143600
      6 C2          -2.9580    -0.4000     0.5230 ca         1 ZO9      -0.111000
      7 N2           2.5680    -0.6200     0.4240 nc         1 ZO9      -0.321300
      8 C3          -1.6820     0.1590     0.3320 ca         1 ZO9      -0.072200
      9 N3           4.0640     1.1540    -0.1530 nc         1 ZO9      -0.444300
     10 C4          -1.5100     1.4580    -0.0590 ca         1 ZO9       0.073400
     11 N4           2.5390     2.8180    -0.5400 nv         1 ZO9      -1.046900
     12 C5          -2.6150     2.2920    -0.2880 ca         1 ZO9      -0.050000
     13 C6           0.4570     0.6340     0.1430 cd         1 ZO9       0.368800
     14 C7          -0.2120    -1.8240     0.8490 c3         1 ZO9       0.111600
     15 C8           0.0170    -2.7810    -0.3180 cx         1 ZO9      -0.151700
     16 C9          -0.3230    -4.2490    -0.1980 cx         1 ZO9      -0.122400
     17 C10         -1.1440    -3.3550    -1.0980 cx         1 ZO9      -0.122400
     18 C11          1.9050     0.4870     0.1360 cd         1 ZO9       0.193700
     19 C12          2.8170     1.5300    -0.1980 cd         1 ZO9       0.517900
     20 H           -4.7810     2.3940    -0.2780 ha         1 ZO9       0.117000
     21 H1          -5.0840     0.0190     0.4370 ha         1 ZO9       0.115000
     22 H2          -3.0900    -1.4330     0.8340 ha         1 ZO9       0.119000
     23 HN4          3.2530     3.3430    -1.0380 hn         1 ZO9       0.504500
     24 HN4A         1.5650     3.0470    -0.7360 hn         1 ZO9       0.504500
     25 H5          -2.4730     3.3230    -0.6000 ha         1 ZO9       0.128000
     26 H7           0.6450    -1.8770     1.5310 h1         1 ZO9       0.070700
     27 H7A         -1.0720    -2.1750     1.4330 h1         1 ZO9       0.070700
     28 H8           0.9080    -2.5330    -0.8900 hc         1 ZO9       0.098700
     29 H9           0.3480    -4.9640    -0.6690 hc         1 ZO9       0.074950
     30 H9A         -0.7820    -4.5970     0.7240 hc         1 ZO9       0.074950
     31 H10         -2.1530    -3.1060    -0.7780 hc         1 ZO9       0.074950
     32 H10A        -1.0250    -3.4680    -2.1730 hc         1 ZO9       0.074950
@<TRIPOS>BOND
     1     1     4 ar  
     2     1    12 ar  
     3     1    20 1   
     4     2    10 1   
     5     2    13 2   
     6     3     7 1   
     7     3     9 1   
     8     4     6 ar  
     9     4    21 1   
    10     5     8 1   
    11     5    13 1   
    12     5    14 1   
    13     6     8 ar  
    14     6    22 1   
    15     7    18 2   
    16     8    10 ar  
    17     9    19 2   
    18    10    12 ar  
    19    11    19 1   
    20    11    23 1   
    21    11    24 1   
    22    12    25 1   
    23    13    18 1   
    24    14    15 1   
    25    14    26 1   
    26    14    27 1   
    27    15    16 1   
    28    15    17 1   
    29    15    28 1   
    30    16    17 1   
    31    16    29 1   
    32    16    30 1   
    33    17    31 1   
    34    17    32 1   
    35    18    19 1   
@<TRIPOS>SUBSTRUCTURE
     1 ZO9         1 TEMP              0 ****  ****    0 ROOT
