@<TRIPOS>MOLECULE
ZO9
   32    35     1     0     0
SMALL
abcg2


@<TRIPOS>ATOM
      1 C           -3.8670     1.7520    -0.1300 ca         1 ZO9      -0.129000
      2 N           -0.1760     1.6610    -0.2530 nc         1 ZO9      -0.595100
      3 O            3.8190    -0.3230     0.1400 os         1 ZO9       0.111600
      4 C1          -4.0530     0.4340     0.3240 ca         1 ZO9      -0.091000
      5 N1          -0.4600    -0.4340     0.4670 na         1 ZO9      -0.143600
      6 C2          -2.9860    -0.4110     0.5610 ca         1 ZO9      -0.111000
      7 N2           2.5400    -0.6470     0.2740 nc         1 ZO9      -0.321300
      8 C3          -1.7140     0.1050     0.3280 ca         1 ZO9      -0.072200
      9 N3           3.9800     0.9940    -0.1620 nc         1 ZO9      -0.444300
     10 C4          -1.5140     1.4210    -0.1200 ca         1 ZO9       0.073400
     11 N4           2.4890     2.7920    -0.4290 nv         1 ZO9      -1.046900
     12 C5          -2.6050     2.2610    -0.3550 ca         1 ZO9      -0.050000
     13 C6           0.4120     0.5440     0.0970 cd         1 ZO9       0.368800
     14 C7          -0.1720    -1.8050     0.8640 c3         1 ZO9       0.111600
     15 C8           0.0640    -2.7110    -0.3120 cx         1 ZO9      -0.151700
     16 C9          -0.2890    -4.1610    -0.1880 cx         1 ZO9      -0.122400
     17 C10         -1.0970    -3.2650    -1.0770 cx         1 ZO9      -0.122400
     18 C11          1.8540     0.4320     0.0710 cd         1 ZO9       0.193700
     19 C12          2.7800     1.4980    -0.2100 cd         1 ZO9       0.517900
     20 H           -4.7350     2.3750    -0.3020 ha         1 ZO9       0.117000
     21 H1          -5.0590     0.0720     0.4910 ha         1 ZO9       0.115000
     22 H2          -3.1500    -1.4220     0.9120 ha         1 ZO9       0.119000
     23 HN4          3.2010     3.3780    -0.8310 hn         1 ZO9       0.504500
     24 HN4A         1.5320     3.0020    -0.6670 hn         1 ZO9       0.504500
     25 H5          -2.4570     3.2760    -0.7000 ha         1 ZO9       0.128000
     26 H7           0.6880    -1.8010     1.5320 h1         1 ZO9       0.070700
     27 H7A         -1.0210    -2.1550     1.4520 h1         1 ZO9       0.070700
     28 H8           0.9570    -2.4860    -0.8830 hc         1 ZO9       0.098700
     29 H9           0.3730    -4.8850    -0.6450 hc         1 ZO9       0.074950
     30 H9A         -0.7410    -4.4970     0.7380 hc         1 ZO9       0.074950
     31 H10         -2.0960    -3.0020    -0.7550 hc         1 ZO9       0.074950
     32 H10A        -0.9930    -3.3730    -2.1490 hc         1 ZO9       0.074950
@<TRIPOS>BOND
     1     1     4 ar  
     2     1    12 ar  
     3     1    20 1   
     4     2    10 1   
     5     2    13 2   
     6     3     7 1   
     7     3     9 1   
     8     4     6 ar  
     9     4    21 1   
    10     5     8 1   
    11     5    13 1   
    12     5    14 1   
    13     6     8 ar  
    14     6    22 1   
    15     7    18 2   
    16     8    10 ar  
    17     9    19 2   
    18    10    12 ar  
    19    11    19 1   
    20    11    23 1   
    21    11    24 1   
    22    12    25 1   
    23    13    18 1   
    24    14    15 1   
    25    14    26 1   
    26    14    27 1   
    27    15    16 1   
    28    15    17 1   
    29    15    28 1   
    30    16    17 1   
    31    16    29 1   
    32    16    30 1   
    33    17    31 1   
    34    17    32 1   
    35    18    19 1   
@<TRIPOS>SUBSTRUCTURE
     1 ZO9         1 TEMP              0 ****  ****    0 ROOT
