@<TRIPOS>MOLECULE
ZOA
   50    52     1     0     0
SMALL
No Charge or Current Charge


@<TRIPOS>ATOM
      1 C17         15.5100     5.0080    15.8290 ca         1 ZOA      -0.069300
      2 C20         16.9920     2.7280    15.0580 ca         1 ZOA      -0.260500
      3 C26         14.8630     3.9040    15.2410 ca         1 ZOA      -0.116000
      4 C28         11.7930     8.5440    11.8750 cc         1 ZOA       0.427500
      5 C02         12.4970    11.0850     9.5630 cc         1 ZOA       0.085700
      6 C03         13.7100    11.8090     9.5570 cd         1 ZOA      -0.267600
      7 C04         13.9720    12.8810     8.5580 c          1 ZOA       0.628700
      8 O05         15.1980    13.4760     8.7020 os         1 ZOA      -0.446100
      9 C06         15.5620    14.5280     7.7910 c3         1 ZOA       0.169600
     10 C07         16.9700    15.0050     8.1800 c3         1 ZOA      -0.099100
     11 O08         13.1880    13.2190     7.6830 o          1 ZOA      -0.488000
     12 C09         14.7360    11.5230    10.5300 cd         1 ZOA       0.420900
     13 N10         14.5870    10.5900    11.4510 nc         1 ZOA      -0.645000
     14 C11         13.4720     9.8920    11.4920 cd         1 ZOA       0.399500
     15 C12         13.0850     8.8950    12.3280 cc         1 ZOA      -0.155000
     16 N13         13.8670     8.3900    13.3820 ns         1 ZOA      -0.340100
     17 C14         13.5940     7.3970    14.2900 cs         1 ZOA       0.488400
     18 N15         14.6360     7.2180    15.1550 ns         1 ZOA      -0.452900
     19 C16         14.7110     6.2370    16.2420 c3         1 ZOA       0.143300
     20 C18         16.9030     4.9660    16.0260 ca         1 ZOA      -0.116000
     21 C19         17.6430     3.8330    15.6440 ca         1 ZOA      -0.015000
     22 S21         17.9400     1.2820    14.5680 sy         1 ZOA       1.123600
     23 O22         17.0470     0.1460    14.3560 o          1 ZOA      -0.541500
     24 N23         18.4170     1.6890    13.0570 n8         1 ZOA      -1.005100
     25 O24         19.1750     1.1890    15.3460 o          1 ZOA      -0.541500
     26 C25         15.5960     2.7680    14.8570 ca         1 ZOA      -0.015000
     27 S27         12.1780     6.5080    14.3590 s          1 ZOA      -0.657400
     28 N29         11.3630     9.2440    10.8350 nd         1 ZOA      -0.567100
     29 N30         12.4310    10.1110    10.5800 na         1 ZOA       0.099900
     30 H1          13.7870     3.9250    15.0800 ha         1 ZOA       0.132000
     31 H2          11.1300     7.7880    12.2700 h4         1 ZOA       0.059800
     32 H3          10.4970    10.5790     8.8230 hc         1 ZOA       0.082033
     33 H4          10.9230    12.2790     8.6780 hc         1 ZOA       0.082033
     34 H5          11.6340    11.0800     7.5770 hc         1 ZOA       0.082033
     35 H6          15.5720    14.1640     6.7540 h1         1 ZOA       0.051700
     36 H7          14.8580    15.3680     7.8600 h1         1 ZOA       0.051700
     37 H8          17.2950    15.8110     7.5120 hc         1 ZOA       0.049367
     38 H9          16.9770    15.3850     9.2080 hc         1 ZOA       0.049367
     39 H10         17.6910    14.1820     8.1040 hc         1 ZOA       0.049367
     40 H11         15.6870    12.0400    10.5810 h4         1 ZOA       0.047100
     41 H12         14.7780     8.8190    13.5000 hn         1 ZOA       0.313500
     42 H13         15.4490     7.8080    15.0230 hn         1 ZOA       0.302500
     43 H14         15.1920     6.7110    17.1090 h1         1 ZOA       0.085200
     44 H15         13.7030     5.9400    16.5590 h1         1 ZOA       0.085200
     45 H16         17.4170     5.8130    16.4760 ha         1 ZOA       0.132000
     46 H17         18.7210     3.8200    15.8030 ha         1 ZOA       0.139000
     47 H18         18.1150     0.8710    12.5330 hn         1 ZOA       0.473500
     48 H19         17.7420     2.4040    12.8010 hn         1 ZOA       0.473500
     49 H20         15.0740     1.9250    14.4050 ha         1 ZOA       0.139000
     50 C01         11.3260    11.2620     8.6130 c3         1 ZOA      -0.067800
@<TRIPOS>BOND
     1     1     3 ar  
     2     1    19 1   
     3     1    20 ar  
     4     2    21 ar  
     5     2    22 1   
     6     2    26 ar  
     7     3    26 ar  
     8     3    30 1   
     9     4    15 1   
    10     4    28 2   
    11     4    31 1   
    12     5     6 2   
    13     5    29 1   
    14     5    50 1   
    15     6     7 1   
    16     6    12 1   
    17     7     8 1   
    18     7    11 2   
    19     8     9 1   
    20     9    10 1   
    21     9    35 1   
    22     9    36 1   
    23    10    37 1   
    24    10    38 1   
    25    10    39 1   
    26    12    13 2   
    27    12    40 1   
    28    13    14 1   
    29    14    15 2   
    30    14    29 1   
    31    15    16 1   
    32    16    17 1   
    33    16    41 1   
    34    17    18 1   
    35    17    27 2   
    36    18    19 1   
    37    18    42 1   
    38    19    43 1   
    39    19    44 1   
    40    20    21 ar  
    41    20    45 1   
    42    21    46 1   
    43    22    23 2   
    44    22    24 1   
    45    22    25 2   
    46    24    47 1   
    47    24    48 1   
    48    26    49 1   
    49    28    29 1   
    50    32    50 1   
    51    33    50 1   
    52    34    50 1   
@<TRIPOS>SUBSTRUCTURE
     1 ZOA         1 TEMP              0 ****  ****    0 ROOT
