@<TRIPOS>MOLECULE
ZOA
   50    52     1     0     0
SMALL
bcc


@<TRIPOS>ATOM
      1 C17         16.2510     5.2300    15.5410 ca         1 ZOA      -0.069300
      2 C20         16.0550     2.4680    15.6990 ca         1 ZOA      -0.260500
      3 C26         15.0300     4.5960    15.3200 ca         1 ZOA      -0.134000
      4 C28         13.7160     7.7060    10.4470 cc         1 ZOA       0.427500
      5 C02         13.1760    10.7960     9.0830 cc         1 ZOA       0.136400
      6 C03         13.8780    11.9480     9.3640 cd         1 ZOA      -0.332900
      7 C04         13.6110    13.2150     8.6400 c          1 ZOA       0.677700
      8 O05         13.9690    14.2640     9.3590 os         1 ZOA      -0.422900
      9 C06         13.8590    15.5680     8.7600 c3         1 ZOA       0.146400
     10 C07         14.3950    16.5730     9.7490 c3         1 ZOA      -0.099100
     11 O08         13.1480    13.2860     7.5280 o          1 ZOA      -0.537000
     12 C09         14.9160    11.9010    10.3380 cd         1 ZOA       0.486200
     13 N10         15.2800    10.8270    10.9750 nc         1 ZOA      -0.645000
     14 C11         14.6070     9.7070    10.6840 cd         1 ZOA       0.399500
     15 C12         14.7140     8.4040    11.1360 cc         1 ZOA      -0.155000
     16 N13         15.6460     7.9140    12.0500 ns         1 ZOA      -0.407100
     17 C14         15.3710     7.6460    13.3470 cs         1 ZOA       0.622400
     18 N15         16.4020     7.1610    14.0460 ns         1 ZOA      -0.519900
     19 C16         16.3640     6.7300    15.4260 c3         1 ZOA       0.143300
     20 C18         17.3700     4.4590    15.8420 ca         1 ZOA      -0.134000
     21 C19         17.2820     3.0780    15.9200 ca         1 ZOA      -0.033000
     22 S21         15.9320     0.7050    15.8130 sy         1 ZOA       1.265200
     23 O22         14.5270     0.3720    16.0010 o          1 ZOA      -0.612300
     24 N23         16.5060     0.2500    14.3300 n8         1 ZOA      -0.894700
     25 O24         16.9000     0.2090    16.7810 o          1 ZOA      -0.612300
     26 C25         14.9240     3.2170    15.4030 ca         1 ZOA      -0.033000
     27 S27         13.8480     7.9260    14.0040 s          1 ZOA      -0.657400
     28 N29         13.0270     8.4780     9.6280 nd         1 ZOA      -0.567100
     29 N30         13.5730     9.6930     9.7660 na         1 ZOA       0.049200
     30 H1          14.1540     5.1880    15.0880 ha         1 ZOA       0.150000
     31 H2          13.4780     6.6560    10.5280 h4         1 ZOA       0.059800
     32 H3          11.2730     9.9880     8.6180 hc         1 ZOA       0.082033
     33 H4          11.5870    11.5610     7.8680 hc         1 ZOA       0.082033
     34 H5          12.3630    10.1040     7.2490 hc         1 ZOA       0.082033
     35 H6          14.4280    15.5910     7.8290 h1         1 ZOA       0.051700
     36 H7          12.8130    15.7690     8.5220 h1         1 ZOA       0.051700
     37 H8          14.3170    17.5710     9.3180 hc         1 ZOA       0.049367
     38 H9          13.8260    16.5660    10.6780 hc         1 ZOA       0.049367
     39 H10         15.4440    16.3900     9.9790 hc         1 ZOA       0.049367
     40 H11         15.4660    12.8050    10.5710 h4         1 ZOA       0.047100
     41 H12         16.5850     7.7560    11.7100 hn         1 ZOA       0.313500
     42 H13         17.2730     6.9880    13.5620 hn         1 ZOA       0.302500
     43 H14         17.2760     7.0750    15.9130 h1         1 ZOA       0.085200
     44 H15         15.5210     7.2190    15.9120 h1         1 ZOA       0.085200
     45 H16         18.3230     4.9400    16.0200 ha         1 ZOA       0.150000
     46 H17         18.1610     2.4940    16.1550 ha         1 ZOA       0.157000
     47 H18         16.8060    -0.7210    14.3280 hn         1 ZOA       0.418300
     48 H19         15.8380     0.4150    13.5830 hn         1 ZOA       0.418300
     49 H20         13.9670     2.7410    15.2410 ha         1 ZOA       0.157000
     50 C01         12.0300    10.6170     8.1540 c3         1 ZOA      -0.067800
@<TRIPOS>BOND
     1     1     3 ar  
     2     1    19 1   
     3     1    20 ar  
     4     2    21 ar  
     5     2    22 1   
     6     2    26 ar  
     7     3    26 ar  
     8     3    30 1   
     9     4    15 1   
    10     4    28 2   
    11     4    31 1   
    12     5     6 2   
    13     5    29 1   
    14     5    50 1   
    15     6     7 1   
    16     6    12 1   
    17     7     8 1   
    18     7    11 2   
    19     8     9 1   
    20     9    10 1   
    21     9    35 1   
    22     9    36 1   
    23    10    37 1   
    24    10    38 1   
    25    10    39 1   
    26    12    13 2   
    27    12    40 1   
    28    13    14 1   
    29    14    15 2   
    30    14    29 1   
    31    15    16 1   
    32    16    17 1   
    33    16    41 1   
    34    17    18 1   
    35    17    27 2   
    36    18    19 1   
    37    18    42 1   
    38    19    43 1   
    39    19    44 1   
    40    20    21 ar  
    41    20    45 1   
    42    21    46 1   
    43    22    23 2   
    44    22    24 1   
    45    22    25 2   
    46    24    47 1   
    47    24    48 1   
    48    26    49 1   
    49    28    29 1   
    50    32    50 1   
    51    33    50 1   
    52    34    50 1   
@<TRIPOS>SUBSTRUCTURE
     1 ZOA         1 TEMP              0 ****  ****    0 ROOT
