@<TRIPOS>MOLECULE
ZOB
   62    64     1     0     0
SMALL
abcg2


@<TRIPOS>ATOM
      1 C36        133.3410   138.2440   133.8550 c3         1 ZOB      -0.149400
      2 C33        139.9090   136.9350   134.1220 ca         1 ZOB       0.145000
      3 C32        138.8710   137.1140   135.0190 ca         1 ZOB       0.294900
      4 C4         135.9040   135.5740   133.1490 ca         1 ZOB       0.392300
      5 C6         134.2500   137.2650   133.1810 ca         1 ZOB       0.175300
      6 C20        139.7510   134.9670   130.2820 ca         1 ZOB      -0.290000
      7 C21        140.0560   136.2720   130.7200 ca         1 ZOB       0.689900
      8 C8         135.0110   136.3680   131.2290 ca         1 ZOB       0.423900
      9 C18        137.6370   135.8180   129.5290 ca         1 ZOB      -0.418500
     10 O17        135.8030   134.0730   129.0100 o          1 ZOB      -0.544500
     11 C19        138.5180   134.7510   129.7170 ca         1 ZOB       0.094000
     12 C12        134.2090   138.5340   128.8620 c3         1 ZOB       0.142600
     13 C2         137.6550   133.9450   133.0790 c3         1 ZOB       0.166600
     14 C23        138.0730   137.0990   129.9060 ca         1 ZOB       0.724300
     15 C25        137.6250   139.4300   130.1620 c3         1 ZOB       0.166900
     16 C27        141.3830   137.7300   132.1920 c3         1 ZOB       0.285100
     17 C28        140.3010   137.9250   133.2320 ca         1 ZOB      -0.145300
     18 C29        139.5830   139.1060   133.3570 ca         1 ZOB       0.145000
     19 C30        138.5530   139.2540   134.2690 ca         1 ZOB       0.294900
     20 C5         135.0990   136.4440   133.8940 ca         1 ZOB      -0.273000
     21 F35        139.8880   140.1460   132.5540 f          1 ZOB      -0.170500
     22 N10        134.9570   136.3470   129.8340 nh         1 ZOB      -0.730200
     23 N22        139.2300   137.3080   130.5050 nb         1 ZOB      -0.843000
     24 N31        138.2000   138.2630   135.0880 nb         1 ZOB      -0.615000
     25 N7         134.2080   137.2330   131.8340 nb         1 ZOB      -0.246000
     26 N9         135.8610   135.5240   131.8250 nb         1 ZOB      -0.325000
     27 O13        133.1020   139.2000   128.2660 os         1 ZOB      -0.462000
     28 O24        137.2620   138.1320   129.6640 os         1 ZOB      -0.466300
     29 S15        136.0470   135.4910   128.8870 sy         1 ZOB       1.251600
     30 H61        133.5700   139.2570   133.5180 hc         1 ZOB       0.058700
     31 H60        132.3040   138.0380   133.5810 hc         1 ZOB       0.058700
     32 H62        133.4380   138.1980   134.9380 hc         1 ZOB       0.058700
     33 H59        138.5850   136.3090   135.6850 h4         1 ZOB       0.047100
     34 H51        140.4430   134.1550   130.4560 ha         1 ZOB       0.130000
     35 H50        138.2090   133.7530   129.4440 ha         1 ZOB       0.147000
     36 H39        139.1240   132.4710   133.5480 hc         1 ZOB       0.048700
     37 H37        138.9300   133.7070   134.7990 hc         1 ZOB       0.048700
     38 H38        137.7100   132.4300   134.6130 hc         1 ZOB       0.048700
     39 H43        132.9990   137.0120   129.7770 h1         1 ZOB       0.072700
     40 H44        133.6610   136.5430   128.2150 h1         1 ZOB       0.072700
     41 H45        135.0910   138.6120   128.2220 h1         1 ZOB       0.059700
     42 H46        134.4120   139.0450   129.8020 h1         1 ZOB       0.059700
     43 H49        132.1510   139.5810   126.5150 h1         1 ZOB       0.032367
     44 H47        133.8900   139.2300   126.3410 h1         1 ZOB       0.032367
     45 H48        132.7370   137.9110   126.6560 h1         1 ZOB       0.032367
     46 H40        137.1010   133.3450   132.3570 h1         1 ZOB       0.055700
     47 H41        138.3260   134.6020   132.5300 h1         1 ZOB       0.055700
     48 H52        136.8340   140.0920   129.8210 h1         1 ZOB       0.053700
     49 H53        137.6640   139.4160   131.2490 h1         1 ZOB       0.053700
     50 H54        138.5870   139.7430   129.7610 h1         1 ZOB       0.053700
     51 H57        142.3530   137.6510   132.6820 h1         1 ZOB       0.078700
     52 H56        141.4090   138.6020   131.5440 h1         1 ZOB       0.078700
     53 H58        138.0080   140.1890   134.3250 h4         1 ZOB       0.047100
     54 H42        135.1540   136.4640   134.9720 ha         1 ZOB       0.150000
     55 H55        141.7340   135.7170   131.6890 hn         1 ZOB       0.496000
     56 O3         136.7240   134.7680   133.8220 os         1 ZOB      -0.470300
     57 C11        133.8770   137.0700   129.1390 c3         1 ZOB       0.210800
     58 N26        141.2040   136.5240   131.4010 nu         1 ZOB      -0.912100
     59 C1         138.3960   133.0890   134.0770 c3         1 ZOB      -0.098100
     60 O16        135.9040   136.0660   127.5680 o          1 ZOB      -0.544500
     61 C14        132.9700   138.9580   126.8710 c3         1 ZOB       0.140900
     62 F34        140.5560   135.7500   134.1110 f          1 ZOB      -0.170500
@<TRIPOS>BOND
     1     1     5 1   
     2     1    30 1   
     3     1    31 1   
     4     1    32 1   
     5     2     3 ar  
     6     2    17 ar  
     7     2    62 1   
     8     3    24 ar  
     9     3    33 1   
    10     4    20 ar  
    11     4    26 ar  
    12     4    56 1   
    13     5    20 ar  
    14     5    25 ar  
    15     6     7 ar  
    16     6    11 ar  
    17     6    34 1   
    18     7    23 ar  
    19     7    58 1   
    20     8    22 1   
    21     8    25 ar  
    22     8    26 ar  
    23     9    11 ar  
    24     9    14 ar  
    25     9    29 1   
    26    10    29 2   
    27    11    35 1   
    28    12    27 1   
    29    12    41 1   
    30    12    42 1   
    31    12    57 1   
    32    13    46 1   
    33    13    47 1   
    34    13    56 1   
    35    13    59 1   
    36    14    23 ar  
    37    14    28 1   
    38    15    28 1   
    39    15    48 1   
    40    15    49 1   
    41    15    50 1   
    42    16    17 1   
    43    16    51 1   
    44    16    52 1   
    45    16    58 1   
    46    17    18 ar  
    47    18    19 ar  
    48    18    21 1   
    49    19    24 ar  
    50    19    53 1   
    51    20    54 1   
    52    22    29 1   
    53    22    57 1   
    54    27    61 1   
    55    29    60 2   
    56    36    59 1   
    57    37    59 1   
    58    38    59 1   
    59    39    57 1   
    60    40    57 1   
    61    43    61 1   
    62    44    61 1   
    63    45    61 1   
    64    55    58 1   
@<TRIPOS>SUBSTRUCTURE
     1 ZOB         1 TEMP              0 ****  ****    0 ROOT
