@<TRIPOS>MOLECULE
ZOB
   62    64     1     0     0
SMALL
No Charge or Current Charge


@<TRIPOS>ATOM
      1 C36        134.4060   138.7190   133.8400 c3         1 ZOB      -0.149400
      2 C33        140.2270   137.0420   134.4770 ca         1 ZOB       0.145000
      3 C32        139.2590   136.9110   135.4970 ca         1 ZOB       0.294900
      4 C4         136.0090   135.3580   133.0370 ca         1 ZOB       0.392300
      5 C6         134.9350   137.4980   133.1140 ca         1 ZOB       0.175300
      6 C20        139.7490   135.3390   130.6450 ca         1 ZOB      -0.290000
      7 C21        140.0250   136.6920   130.7900 ca         1 ZOB       0.689900
      8 C8         135.2670   136.3960   131.1220 ca         1 ZOB       0.423900
      9 C18        137.7710   135.9950   129.4800 ca         1 ZOB      -0.418500
     10 O17        135.9720   134.1620   128.8520 o          1 ZOB      -0.544500
     11 C19        138.5880   134.9680   129.9700 ca         1 ZOB       0.094000
     12 C12        134.1780   138.5470   128.6550 c3         1 ZOB       0.142600
     13 C2         137.1740   133.2020   133.0000 c3         1 ZOB       0.166600
     14 C23        138.1500   137.3240   129.6440 ca         1 ZOB       0.724300
     15 C25        137.6580   139.7160   129.3860 c3         1 ZOB       0.166900
     16 C27        141.1360   138.2670   132.4150 c3         1 ZOB       0.285100
     17 C28        140.1150   138.0900   133.5360 ca         1 ZOB      -0.145300
     18 C29        139.0180   138.9670   133.6840 ca         1 ZOB       0.145000
     19 C30        138.0990   138.7660   134.7370 ca         1 ZOB       0.294900
     20 C5         135.5490   136.4390   133.7930 ca         1 ZOB      -0.273000
     21 F35        138.8450   140.0100   132.8380 f          1 ZOB      -0.170500
     22 N10        135.1100   136.4150   129.7200 nh         1 ZOB      -0.730200
     23 N22        139.2710   137.6660   130.3010 nb         1 ZOB      -0.843000
     24 N31        138.2080   137.7570   135.6390 nb         1 ZOB      -0.615000
     25 N7         134.7920   137.4750   131.7780 nb         1 ZOB      -0.246000
     26 N9         135.8610   135.3320   131.6980 nb         1 ZOB      -0.325000
     27 O13        132.9440   139.1400   128.1830 os         1 ZOB      -0.462000
     28 O24        137.3670   138.3290   129.1290 os         1 ZOB      -0.466300
     29 S15        136.2250   135.6000   128.7180 sy         1 ZOB       1.251600
     30 H61        134.8700   139.6350   133.4560 hc         1 ZOB       0.058700
     31 H60        133.3220   138.8110   133.7120 hc         1 ZOB       0.058700
     32 H62        134.6120   138.6680   134.9160 hc         1 ZOB       0.058700
     33 H59        139.3350   136.1060   136.2270 h4         1 ZOB       0.047100
     34 H51        140.4070   134.5870   131.0700 ha         1 ZOB       0.130000
     35 H50        138.3270   133.9150   129.8570 ha         1 ZOB       0.147000
     36 H39        138.2080   131.3700   133.5510 hc         1 ZOB       0.048700
     37 H37        138.5510   132.7430   134.6250 hc         1 ZOB       0.048700
     38 H38        136.9880   131.8940   134.7330 hc         1 ZOB       0.048700
     39 H43        133.0850   137.0310   129.7460 h1         1 ZOB       0.072700
     40 H44        133.6540   136.4890   128.1820 h1         1 ZOB       0.072700
     41 H45        134.9570   138.6010   127.8840 h1         1 ZOB       0.059700
     42 H46        134.5420   139.0990   129.5300 h1         1 ZOB       0.059700
     43 H49        131.5770   139.2390   126.6040 h1         1 ZOB       0.032367
     44 H47        133.2250   138.7750   126.1340 h1         1 ZOB       0.032367
     45 H48        132.1660   137.6070   126.9670 h1         1 ZOB       0.032367
     46 H40        136.4010   132.6800   132.4180 h1         1 ZOB       0.055700
     47 H41        137.9680   133.5270   132.3150 h1         1 ZOB       0.055700
     48 H52        136.9210   140.3580   128.8880 h1         1 ZOB       0.053700
     49 H53        137.6200   139.9300   130.4620 h1         1 ZOB       0.053700
     50 H54        138.6530   139.9870   129.0090 h1         1 ZOB       0.053700
     51 H57        142.1360   138.3770   132.8590 h1         1 ZOB       0.078700
     52 H56        140.9360   139.1900   131.8540 h1         1 ZOB       0.078700
     53 H58        137.2520   139.4390   134.8640 h4         1 ZOB       0.047100
     54 H42        135.6710   136.4500   134.8720 ha         1 ZOB       0.150000
     55 H55        141.7130   136.3350   131.7760 hn         1 ZOB       0.496000
     56 O3         136.6180   134.3230   133.7090 os         1 ZOB      -0.470300
     57 C11        133.9490   137.0670   129.0680 c3         1 ZOB       0.210800
     58 N26        141.1120   137.1080   131.5080 nu         1 ZOB      -0.912100
     59 C1         137.7670   132.2440   134.0450 c3         1 ZOB      -0.098100
     60 O16        136.1750   136.2490   127.4040 o          1 ZOB      -0.544500
     61 C14        132.4590   138.6640   126.9120 c3         1 ZOB       0.140900
     62 F34        141.2590   136.1660   134.4140 f          1 ZOB      -0.170500
@<TRIPOS>BOND
     1     1     5 1   
     2     1    30 1   
     3     1    31 1   
     4     1    32 1   
     5     2     3 ar  
     6     2    17 ar  
     7     2    62 1   
     8     3    24 ar  
     9     3    33 1   
    10     4    20 ar  
    11     4    26 ar  
    12     4    56 1   
    13     5    20 ar  
    14     5    25 ar  
    15     6     7 ar  
    16     6    11 ar  
    17     6    34 1   
    18     7    23 ar  
    19     7    58 1   
    20     8    22 1   
    21     8    25 ar  
    22     8    26 ar  
    23     9    11 ar  
    24     9    14 ar  
    25     9    29 1   
    26    10    29 2   
    27    11    35 1   
    28    12    27 1   
    29    12    41 1   
    30    12    42 1   
    31    12    57 1   
    32    13    46 1   
    33    13    47 1   
    34    13    56 1   
    35    13    59 1   
    36    14    23 ar  
    37    14    28 1   
    38    15    28 1   
    39    15    48 1   
    40    15    49 1   
    41    15    50 1   
    42    16    17 1   
    43    16    51 1   
    44    16    52 1   
    45    16    58 1   
    46    17    18 ar  
    47    18    19 ar  
    48    18    21 1   
    49    19    24 ar  
    50    19    53 1   
    51    20    54 1   
    52    22    29 1   
    53    22    57 1   
    54    27    61 1   
    55    29    60 2   
    56    36    59 1   
    57    37    59 1   
    58    38    59 1   
    59    39    57 1   
    60    40    57 1   
    61    43    61 1   
    62    44    61 1   
    63    45    61 1   
    64    55    58 1   
@<TRIPOS>SUBSTRUCTURE
     1 ZOB         1 TEMP              0 ****  ****    0 ROOT
