@<TRIPOS>MOLECULE
ZOD
   62    65     1     0     0
SMALL
abcg2


@<TRIPOS>ATOM
      1 C01          4.8670     3.3040     3.5830 c3         1 ZOD      -0.157100
      2 C02          3.8540     2.3420     3.0410 c          1 ZOD       0.598100
      3 O03          3.1390     1.6370     3.7020 o          1 ZOD      -0.464000
      4 O04          3.8510     2.3640     1.7030 os         1 ZOD      -0.457100
      5 C05          2.9570     1.5400     0.9790 c5         1 ZOD       0.085300
      6 C06          1.8300     2.3270     0.3290 c5         1 ZOD       0.391300
      7 O07          0.8330     2.5990     1.2370 oh         1 ZOD      -0.697000
      8 O08          1.3830     1.4560    -0.6880 os         1 ZOD      -0.458000
      9 C09          2.4500     0.6320    -1.1460 c5         1 ZOD       0.166300
     10 C10          2.0380    -0.8250    -1.1530 c3         1 ZOD       0.227600
     11 O1B          1.0450    -1.0280    -2.1330 os         1 ZOD      -0.584400
     12 PB           0.7250    -2.5490    -2.6520 p5         1 ZOD       1.464800
     13 O2B         -0.2630    -2.4250    -3.7630 o          1 ZOD      -0.842500
     14 O3B          2.0140    -3.2910    -2.8420 o          1 ZOD      -0.842500
     15 O3A          0.0180    -3.1540    -1.3000 os         1 ZOD      -0.728800
     16 PA          -1.3260    -4.0690    -1.1560 p5         1 ZOD       1.481800
     17 O2A         -2.5360    -3.3730    -1.7040 o          1 ZOD      -0.849000
     18 O1A         -0.9990    -5.4680    -1.5730 o          1 ZOD      -0.849000
     19 O5          -1.4050    -4.0950     0.4870 os         1 ZOD      -0.582400
     20 C5          -2.1930    -3.1870     1.2220 c3         1 ZOD       0.227600
     21 C4          -1.4010    -2.0010     1.7490 c5         1 ZOD       0.136300
     22 O4          -0.9140    -1.1800     0.6850 os         1 ZOD      -0.396000
     23 C1          -1.4880     0.0890     0.7380 c5         1 ZOD       0.330300
     24 N9          -1.7690     0.5540    -0.6020 na         1 ZOD      -0.274300
     25 C8          -2.2110    -0.2040    -1.6530 cc         1 ZOD       0.481700
     26 N7          -2.4960     0.5050    -2.7070 nd         1 ZOD      -0.558100
     27 C7          -2.2240     1.7950    -2.3380 ca         1 ZOD      -0.070600
     28 C6          -2.3410     3.0190    -3.0180 ca         1 ZOD       0.435900
     29 N6          -2.7800     3.1040    -4.2740 nv         1 ZOD      -1.080900
     30 N1          -1.9950     4.1390    -2.3700 nb         1 ZOD      -0.333000
     31 C2          -1.5490     4.0460    -1.1240 ca         1 ZOD       0.147900
     32 N3          -1.4030     2.9590    -0.3840 nb         1 ZOD      -0.243000
     33 C9          -1.7600     1.8460    -1.0320 ca         1 ZOD       0.127500
     34 C11         -2.7450    -0.0720     1.5890 c5         1 ZOD       0.058300
     35 O2          -3.1360     1.1620     2.1160 oh         1 ZOD      -0.701000
     36 C3          -2.2660    -1.0930     2.6210 c5         1 ZOD       0.099300
     37 O3          -1.4600    -0.4810     3.5950 oh         1 ZOD      -0.710000
     38 C38          3.6460     0.8960    -0.2190 c5         1 ZOD       0.125300
     39 O39          4.5300     1.7750    -0.8680 oh         1 ZOD      -0.713000
     40 H1           4.8700     3.2790     4.6690 hc         1 ZOD       0.058033
     41 H10          5.8630     3.0550     3.2170 hc         1 ZOD       0.058033
     42 H3           4.6450     4.3190     3.2500 hc         1 ZOD       0.058033
     43 H4           2.5200     0.7650     1.6150 h1         1 ZOD       0.108700
     44 H5           2.2150     3.2560    -0.1250 h2         1 ZOD       0.023700
     45 H6           0.0280     2.8980     0.7590 ho         1 ZOD       0.507000
     46 H7           2.7280     0.9190    -2.1680 h1         1 ZOD       0.078700
     47 H11          2.9300    -1.4210    -1.3730 h1         1 ZOD       0.032700
     48 H9           1.6730    -1.1130    -0.1610 h1         1 ZOD       0.032700
     49 H5'1        -3.0540    -2.8420     0.6400 h1         1 ZOD       0.016200
     50 H5'2        -2.5850    -3.7280     2.0880 h1         1 ZOD       0.016200
     51 H14         -0.5430    -2.3720     2.3180 h1         1 ZOD       0.091700
     52 H12         -0.8110     0.8160     1.1940 h2         1 ZOD       0.105700
     53 H8          -2.3010    -1.2820    -1.5880 h5         1 ZOD       0.155800
     54 HN61        -3.0570     2.2830    -4.7820 hn         1 ZOD       0.496000
     55 HN62        -2.8810     4.0000    -4.7190 hn         1 ZOD       0.496000
     56 H2          -1.2670     4.9820    -0.6540 h5         1 ZOD       0.017100
     57 H15         -3.5390    -0.5260     0.9810 h1         1 ZOD       0.067700
     58 HO2         -4.0500     1.0990     2.4090 ho         1 ZOD       0.491000
     59 H13         -3.1030    -1.6390     3.0770 h1         1 ZOD       0.038700
     60 HO3         -1.8830     0.3480     3.8470 ho         1 ZOD       0.504000
     61 H24          4.1520    -0.0340     0.0660 h1         1 ZOD       0.057700
     62 H25          5.2640     1.9620    -0.2730 ho         1 ZOD       0.492000
@<TRIPOS>BOND
     1     1     2 1   
     2     1    40 1   
     3     1    41 1   
     4     1    42 1   
     5     2     3 2   
     6     2     4 1   
     7     4     5 1   
     8     5     6 1   
     9     5    38 1   
    10     5    43 1   
    11     6     7 1   
    12     6     8 1   
    13     6    44 1   
    14     7    45 1   
    15     8     9 1   
    16     9    10 1   
    17     9    38 1   
    18     9    46 1   
    19    10    11 1   
    20    10    47 1   
    21    10    48 1   
    22    11    12 1   
    23    12    13 1   
    24    12    14 1   
    25    12    15 1   
    26    15    16 1   
    27    16    17 1   
    28    16    18 1   
    29    16    19 1   
    30    19    20 1   
    31    20    21 1   
    32    20    49 1   
    33    20    50 1   
    34    21    22 1   
    35    21    36 1   
    36    21    51 1   
    37    22    23 1   
    38    23    24 1   
    39    23    34 1   
    40    23    52 1   
    41    24    25 1   
    42    24    33 1   
    43    25    26 2   
    44    25    53 1   
    45    26    27 1   
    46    27    28 ar  
    47    27    33 ar  
    48    28    29 1   
    49    28    30 ar  
    50    29    54 1   
    51    29    55 1   
    52    30    31 ar  
    53    31    32 ar  
    54    31    56 1   
    55    32    33 ar  
    56    34    35 1   
    57    34    36 1   
    58    34    57 1   
    59    35    58 1   
    60    36    37 1   
    61    36    59 1   
    62    37    60 1   
    63    38    39 1   
    64    38    61 1   
    65    39    62 1   
@<TRIPOS>SUBSTRUCTURE
     1 ZOD         1 TEMP              0 ****  ****    0 ROOT
