@<TRIPOS>MOLECULE
ZOD
   62    65     1     0     0
SMALL
No Charge or Current Charge


@<TRIPOS>ATOM
      1 C01          5.7340     3.0310     3.5400 c3         1 ZOD      -0.157100
      2 C02          4.4180     2.6160     2.8960 c          1 ZOD       0.598100
      3 O03          3.3240     2.8920     3.3650 o          1 ZOD      -0.464000
      4 O04          4.6350     1.8400     1.7800 os         1 ZOD      -0.457100
      5 C05          3.4260     1.4110     1.0670 c5         1 ZOD       0.085300
      6 C06          2.7910     2.5940     0.2420 c5         1 ZOD       0.391300
      7 O07          1.4900     2.9220     0.6870 oh         1 ZOD      -0.697000
      8 O08          2.7080     2.1290    -1.1160 os         1 ZOD      -0.458000
      9 C09          2.7690     0.6760    -1.1090 c5         1 ZOD       0.166300
     10 C10          1.3640     0.0560    -0.7950 c3         1 ZOD       0.227600
     11 O1B          0.9180    -0.7710    -1.8820 os         1 ZOD      -0.584400
     12 PB           1.4530    -2.2840    -2.0330 p5         1 ZOD       1.464800
     13 O2B          1.2230    -2.7890    -3.4180 o          1 ZOD      -0.842500
     14 O3B          2.9020    -2.3750    -1.6920 o          1 ZOD      -0.842500
     15 O3A          0.5930    -2.9640    -0.8970 os         1 ZOD      -0.728800
     16 PA          -0.6970    -3.7120    -1.3990 p5         1 ZOD       1.481800
     17 O2A         -1.6760    -2.8590    -2.1350 o          1 ZOD      -0.849000
     18 O1A         -0.3750    -4.9840    -2.1140 o          1 ZOD      -0.849000
     19 O5          -1.2920    -4.1060     0.0500 os         1 ZOD      -0.582400
     20 C5          -2.1840    -3.2500     0.7840 c3         1 ZOD       0.227600
     21 C4          -1.4310    -2.0670     1.4710 c5         1 ZOD       0.136300
     22 O4          -1.1860    -0.9900     0.5290 os         1 ZOD      -0.396000
     23 C1          -2.1510     0.0660     0.7180 c5         1 ZOD       0.330300
     24 N9          -2.6210     0.5280    -0.5850 na         1 ZOD      -0.274300
     25 C8          -3.4640    -0.1800    -1.4490 cc         1 ZOD       0.481700
     26 N7          -3.8060     0.5650    -2.5220 nd         1 ZOD      -0.558100
     27 C7          -3.1230     1.7660    -2.3090 ca         1 ZOD      -0.070600
     28 C6          -3.0890     2.9330    -3.1020 ca         1 ZOD       0.435900
     29 N6          -3.7720     3.0540    -4.2720 nv         1 ZOD      -1.080900
     30 N1          -2.3780     4.0070    -2.7260 nb         1 ZOD      -0.333000
     31 C2          -1.7010     3.8940    -1.5580 ca         1 ZOD       0.147900
     32 N3          -1.6740     2.8170    -0.7370 nb         1 ZOD      -0.243000
     33 C9          -2.4010     1.7560    -1.1420 ca         1 ZOD       0.127500
     34 C11         -3.2060    -0.4890     1.7350 c5         1 ZOD       0.058300
     35 O2          -3.8520     0.5270     2.5290 oh         1 ZOD      -0.701000
     36 C3          -2.2810    -1.3940     2.6000 c5         1 ZOD       0.099300
     37 O3          -1.4980    -0.6020     3.5020 oh         1 ZOD      -0.710000
     38 C38          3.8700     0.3990    -0.0360 c5         1 ZOD       0.125300
     39 O39          5.1920     0.7010    -0.5170 oh         1 ZOD      -0.713000
     40 H1           5.5910     3.6110     4.4590 hc         1 ZOD       0.058033
     41 H10          6.3410     2.1360     3.7150 hc         1 ZOD       0.058033
     42 H3           6.3330     3.5750     2.8020 hc         1 ZOD       0.058033
     43 H4           2.7040     0.9580     1.7620 h1         1 ZOD       0.108700
     44 H5           3.4290     3.4860     0.2770 h2         1 ZOD       0.023700
     45 H6           1.1130     3.4700    -0.0340 ho         1 ZOD       0.507000
     46 H7           3.0910     0.3360    -2.1020 h1         1 ZOD       0.078700
     47 H11          1.4230    -0.5280     0.1330 h1         1 ZOD       0.032700
     48 H9           0.6340     0.8570    -0.6290 h1         1 ZOD       0.032700
     49 H5'1        -2.9810    -2.8660     0.1370 h1         1 ZOD       0.016200
     50 H5'2        -2.6710    -3.8440     1.5680 h1         1 ZOD       0.016200
     51 H14         -0.4750    -2.4420     1.8600 h1         1 ZOD       0.091700
     52 H12         -1.6380     0.9220     1.1760 h2         1 ZOD       0.105700
     53 H8          -3.7880    -1.1960    -1.2460 h5         1 ZOD       0.155800
     54 HN61        -4.4810     2.3510    -4.4640 hn         1 ZOD       0.496000
     55 HN62        -3.9400     3.9880    -4.6370 hn         1 ZOD       0.496000
     56 H2          -1.1210     4.7600    -1.2450 h5         1 ZOD       0.017100
     57 H15         -3.9590    -1.0940     1.2110 h1         1 ZOD       0.067700
     58 HO2         -4.7130     0.1610     2.8440 ho         1 ZOD       0.491000
     59 H13         -2.8630    -2.1370     3.1640 h1         1 ZOD       0.038700
     60 HO3         -2.0720     0.1750     3.7080 ho         1 ZOD       0.504000
     61 H24          3.8250    -0.6350     0.3310 h1         1 ZOD       0.057700
     62 H25          5.6030     1.2110     0.2220 ho         1 ZOD       0.492000
@<TRIPOS>BOND
     1     1     2 1   
     2     1    40 1   
     3     1    41 1   
     4     1    42 1   
     5     2     3 2   
     6     2     4 1   
     7     4     5 1   
     8     5     6 1   
     9     5    38 1   
    10     5    43 1   
    11     6     7 1   
    12     6     8 1   
    13     6    44 1   
    14     7    45 1   
    15     8     9 1   
    16     9    10 1   
    17     9    38 1   
    18     9    46 1   
    19    10    11 1   
    20    10    47 1   
    21    10    48 1   
    22    11    12 1   
    23    12    13 1   
    24    12    14 1   
    25    12    15 1   
    26    15    16 1   
    27    16    17 1   
    28    16    18 1   
    29    16    19 1   
    30    19    20 1   
    31    20    21 1   
    32    20    49 1   
    33    20    50 1   
    34    21    22 1   
    35    21    36 1   
    36    21    51 1   
    37    22    23 1   
    38    23    24 1   
    39    23    34 1   
    40    23    52 1   
    41    24    25 1   
    42    24    33 1   
    43    25    26 2   
    44    25    53 1   
    45    26    27 1   
    46    27    28 ar  
    47    27    33 ar  
    48    28    29 1   
    49    28    30 ar  
    50    29    54 1   
    51    29    55 1   
    52    30    31 ar  
    53    31    32 ar  
    54    31    56 1   
    55    32    33 ar  
    56    34    35 1   
    57    34    36 1   
    58    34    57 1   
    59    35    58 1   
    60    36    37 1   
    61    36    59 1   
    62    37    60 1   
    63    38    39 1   
    64    38    61 1   
    65    39    62 1   
@<TRIPOS>SUBSTRUCTURE
     1 ZOD         1 TEMP              0 ****  ****    0 ROOT
