@<TRIPOS>MOLECULE
ZOE
   51    52     1     0     0
SMALL
No Charge or Current Charge


@<TRIPOS>ATOM
      1 OAD          4.3490    -2.6260     0.9210 o          1 ZOE      -0.502000
      2 SAY          5.1170    -1.3240     0.8740 s4         1 ZOE       0.195400
      3 CAO          6.6850    -1.6470    -0.0680 c5         1 ZOE      -0.046100
      4 CAV          7.0920    -0.3050    -0.7530 c5         1 ZOE       0.100700
      5 NAQ          7.7280     0.4750     0.3090 ns         1 ZOE      -0.508900
      6 CAU          6.9970     1.5500     0.6860 c          1 ZOE       0.589000
      7 OAC          7.3100     2.3460     1.5490 o          1 ZOE      -0.565000
      8 NAR          5.8660     1.6030    -0.0540 ns         1 ZOE      -0.510900
      9 CAX          5.7720     0.5210    -1.0390 c5         1 ZOE       0.122700
     10 CAW          4.5460    -0.3690    -0.6240 c5         1 ZOE      -0.030400
     11 CAN          3.2030     0.3910    -0.4320 c3         1 ZOE      -0.048400
     12 CAJ          1.9680    -0.5180    -0.2360 c3         1 ZOE      -0.085400
     13 CAI          0.6450     0.2730    -0.1340 c3         1 ZOE      -0.065400
     14 CAM         -0.5890    -0.6370     0.0660 c3         1 ZOE      -0.159400
     15 CAT         -1.8830     0.1790     0.1560 c          1 ZOE       0.596100
     16 OAB         -2.1840     0.8280     1.1480 o          1 ZOE      -0.619100
     17 NAP         -2.6960     0.1040    -0.9530 ns         1 ZOE      -0.499900
     18 CAK         -3.9990     0.7620    -1.0840 c3         1 ZOE       0.095000
     19 CAG         -5.1190    -0.0170    -0.3640 c3         1 ZOE      -0.094400
     20 CAF         -6.5040     0.6500    -0.5150 c3         1 ZOE      -0.078400
     21 CAH         -7.6310    -0.1280     0.2020 c3         1 ZOE      -0.053400
     22 CAL         -9.0210     0.5380     0.0510 c3         1 ZOE      -0.205400
     23 CAS        -10.0900    -0.2900     0.7870 c          1 ZOE       0.717000
     24 OAA        -10.2980    -0.0470     1.9660 o          1 ZOE      -0.742500
     25 OAE        -10.6490    -1.1860     0.1720 o          1 ZOE      -0.742500
     26 H2           7.4440    -2.0380     0.6210 h1         1 ZOE       0.093200
     27 H3           6.4540    -2.4190    -0.8120 h1         1 ZOE       0.093200
     28 H4           7.7330    -0.4390    -1.6350 h1         1 ZOE       0.063700
     29 H5           8.6240     0.2990     0.7470 hn         1 ZOE       0.325500
     30 H6           5.2180     2.3700     0.0780 hn         1 ZOE       0.341500
     31 H7           5.7080     0.8900    -2.0720 h1         1 ZOE       0.074700
     32 H8           4.3870    -1.1260    -1.4030 h1         1 ZOE       0.086700
     33 H9           3.2730     1.0680     0.4280 hc         1 ZOE       0.046700
     34 H10          3.0260     1.0240    -1.3110 hc         1 ZOE       0.046700
     35 H11          1.9030    -1.2240    -1.0730 hc         1 ZOE       0.048200
     36 H12          2.0940    -1.1130     0.6770 hc         1 ZOE       0.048200
     37 H13          0.7110     0.9820     0.7020 hc         1 ZOE       0.052700
     38 H14          0.5080     0.8680    -1.0470 hc         1 ZOE       0.052700
     39 H15         -0.6450    -1.3370    -0.7770 hc         1 ZOE       0.056200
     40 H16         -0.4610    -1.1950     1.0020 hc         1 ZOE       0.056200
     41 H17         -2.3630    -0.4630    -1.7240 hn         1 ZOE       0.307500
     42 H18         -3.9310     1.7790    -0.6740 h1         1 ZOE       0.050700
     43 H19         -4.2400     0.8440    -2.1520 h1         1 ZOE       0.050700
     44 H20         -5.1620    -1.0360    -0.7670 hc         1 ZOE       0.039200
     45 H21         -4.8740    -0.1020     0.7010 hc         1 ZOE       0.039200
     46 H22         -6.4570     1.6700    -0.1130 hc         1 ZOE       0.028700
     47 H23         -6.7470     0.7360    -1.5810 hc         1 ZOE       0.028700
     48 H24         -7.6750    -1.1480    -0.1990 hc         1 ZOE       0.038700
     49 H25         -7.3860    -0.2140     1.2680 hc         1 ZOE       0.038700
     50 H26         -8.9280     1.5330     0.5040 hc         1 ZOE       0.015700
     51 H27         -9.2270     0.5610    -1.0260 hc         1 ZOE       0.015700
@<TRIPOS>BOND
     1     1     2 2   
     2     2     3 1   
     3     2    10 1   
     4     3     4 1   
     5     3    26 1   
     6     3    27 1   
     7     4     5 1   
     8     4     9 1   
     9     4    28 1   
    10     5     6 1   
    11     5    29 1   
    12     6     7 2   
    13     6     8 1   
    14     8     9 1   
    15     8    30 1   
    16     9    10 1   
    17     9    31 1   
    18    10    11 1   
    19    10    32 1   
    20    11    12 1   
    21    11    33 1   
    22    11    34 1   
    23    12    13 1   
    24    12    35 1   
    25    12    36 1   
    26    13    14 1   
    27    13    37 1   
    28    13    38 1   
    29    14    15 1   
    30    14    39 1   
    31    14    40 1   
    32    15    16 2   
    33    15    17 1   
    34    17    18 1   
    35    17    41 1   
    36    18    19 1   
    37    18    42 1   
    38    18    43 1   
    39    19    20 1   
    40    19    44 1   
    41    19    45 1   
    42    20    21 1   
    43    20    46 1   
    44    20    47 1   
    45    21    22 1   
    46    21    48 1   
    47    21    49 1   
    48    22    23 1   
    49    22    50 1   
    50    22    51 1   
    51    23    24 1   
    52    23    25 1   
@<TRIPOS>SUBSTRUCTURE
     1 ZOE         1 TEMP              0 ****  ****    0 ROOT
