@<TRIPOS>MOLECULE
ZOE
   51    52     1     0     0
SMALL
abcg2


@<TRIPOS>ATOM
      1 OAD          4.2520    -2.8340     0.6810 o          1 ZOE      -0.502000
      2 SAY          4.9860    -1.5140     0.7380 s4         1 ZOE       0.195400
      3 CAO          6.6770    -1.7750     0.1230 c5         1 ZOE      -0.046100
      4 CAV          7.0850    -0.4240    -0.4170 c5         1 ZOE       0.100700
      5 NAQ          7.2290     0.5540     0.6420 ns         1 ZOE      -0.508900
      6 CAU          6.6880     1.7620     0.2910 c          1 ZOE       0.589000
      7 OAC          6.8210     2.8150     0.8890 o          1 ZOE      -0.565000
      8 NAR          5.9740     1.5600    -0.8500 ns         1 ZOE      -0.510900
      9 CAX          5.8940     0.1700    -1.2120 c5         1 ZOE       0.122700
     10 CAW          4.6000    -0.5650    -0.7920 c5         1 ZOE      -0.030400
     11 CAN          3.3750     0.3160    -0.6180 c3         1 ZOE      -0.048400
     12 CAJ          2.0860    -0.4570    -0.3650 c3         1 ZOE      -0.085400
     13 CAI          0.8810     0.4710    -0.2740 c3         1 ZOE      -0.065400
     14 CAM         -0.4120    -0.2910    -0.0170 c3         1 ZOE      -0.159400
     15 CAT         -1.6010     0.6220     0.1980 c          1 ZOE       0.596100
     16 OAB         -1.5050     1.6690     0.8290 o          1 ZOE      -0.619100
     17 NAP         -2.7600     0.1860    -0.3180 ns         1 ZOE      -0.499900
     18 CAK         -4.0220     0.8830    -0.1870 c3         1 ZOE       0.095000
     19 CAG         -5.1920    -0.0880    -0.1680 c3         1 ZOE      -0.094400
     20 CAF         -6.5280     0.6350    -0.0520 c3         1 ZOE      -0.078400
     21 CAH         -7.7200    -0.3150    -0.0280 c3         1 ZOE      -0.053400
     22 CAL         -9.0470     0.4160     0.0860 c3         1 ZOE      -0.205400
     23 CAS        -10.3080    -0.4660     0.1180 c          1 ZOE       0.717000
     24 OAA        -11.3920     0.1370     0.2700 o          1 ZOE      -0.742500
     25 OAE        -10.1630    -1.6980    -0.0130 o          1 ZOE      -0.742500
     26 H2           7.3180    -2.1340     0.9270 h1         1 ZOE       0.093200
     27 H3           6.6250    -2.5300    -0.6650 h1         1 ZOE       0.093200
     28 H4           7.9870    -0.4990    -1.0310 h1         1 ZOE       0.063700
     29 H5           8.0460     0.5420     1.2340 hn         1 ZOE       0.325500
     30 H6           5.3130     2.2460    -1.1760 hn         1 ZOE       0.341500
     31 H7           6.0300     0.0410    -2.2850 h1         1 ZOE       0.074700
     32 H8           4.4000    -1.3500    -1.5300 h1         1 ZOE       0.086700
     33 H9           3.5420     1.0300     0.1940 hc         1 ZOE       0.046700
     34 H10          3.2550     0.9120    -1.5300 hc         1 ZOE       0.046700
     35 H11          1.9360    -1.1870    -1.1670 hc         1 ZOE       0.048200
     36 H12          2.1620    -1.0350     0.5610 hc         1 ZOE       0.048200
     37 H13          1.0420     1.1960     0.5260 hc         1 ZOE       0.052700
     38 H14          0.7920     1.0450    -1.2020 hc         1 ZOE       0.052700
     39 H15         -0.6020    -0.9970    -0.8290 hc         1 ZOE       0.056200
     40 H16         -0.3040    -0.8970     0.8900 hc         1 ZOE       0.056200
     41 H17         -2.7480    -0.6490    -0.8810 hn         1 ZOE       0.307500
     42 H18         -4.0050     1.4610     0.7380 h1         1 ZOE       0.050700
     43 H19         -4.1490     1.6000    -1.0060 h1         1 ZOE       0.050700
     44 H20         -5.1840    -0.6930    -1.0810 hc         1 ZOE       0.039200
     45 H21         -5.0720    -0.7830     0.6690 hc         1 ZOE       0.039200
     46 H22         -6.5320     1.2480     0.8570 hc         1 ZOE       0.028700
     47 H23         -6.6370     1.3350    -0.8880 hc         1 ZOE       0.028700
     48 H24         -7.7100    -0.9280    -0.9330 hc         1 ZOE       0.038700
     49 H25         -7.6070    -1.0120     0.8080 hc         1 ZOE       0.038700
     50 H26         -9.0460     1.0450     0.9840 hc         1 ZOE       0.015700
     51 H27         -9.1490     1.1210    -0.7480 hc         1 ZOE       0.015700
@<TRIPOS>BOND
     1     1     2 2   
     2     2     3 1   
     3     2    10 1   
     4     3     4 1   
     5     3    26 1   
     6     3    27 1   
     7     4     5 1   
     8     4     9 1   
     9     4    28 1   
    10     5     6 1   
    11     5    29 1   
    12     6     7 2   
    13     6     8 1   
    14     8     9 1   
    15     8    30 1   
    16     9    10 1   
    17     9    31 1   
    18    10    11 1   
    19    10    32 1   
    20    11    12 1   
    21    11    33 1   
    22    11    34 1   
    23    12    13 1   
    24    12    35 1   
    25    12    36 1   
    26    13    14 1   
    27    13    37 1   
    28    13    38 1   
    29    14    15 1   
    30    14    39 1   
    31    14    40 1   
    32    15    16 2   
    33    15    17 1   
    34    17    18 1   
    35    17    41 1   
    36    18    19 1   
    37    18    42 1   
    38    18    43 1   
    39    19    20 1   
    40    19    44 1   
    41    19    45 1   
    42    20    21 1   
    43    20    46 1   
    44    20    47 1   
    45    21    22 1   
    46    21    48 1   
    47    21    49 1   
    48    22    23 1   
    49    22    50 1   
    50    22    51 1   
    51    23    24 1   
    52    23    25 1   
@<TRIPOS>SUBSTRUCTURE
     1 ZOE         1 TEMP              0 ****  ****    0 ROOT
