@<TRIPOS>MOLECULE
ZOF
   51    52     1     0     0
SMALL
No Charge or Current Charge


@<TRIPOS>ATOM
      1 OAW        -10.4370     1.1960    -0.2850 o          1 ZOF      -0.742500
      2 CAV         -9.8630     0.2930    -0.8740 c          1 ZOF       0.718000
      3 OAX        -10.0570     0.0220    -2.0490 o          1 ZOF      -0.742500
      4 CAU         -8.7940    -0.5090    -0.1090 c3         1 ZOF      -0.205400
      5 CAT         -7.4090     0.1670    -0.2610 c3         1 ZOF      -0.053400
      6 CAS         -6.2820    -0.5830     0.4840 c3         1 ZOF      -0.078400
      7 CAR         -4.9020     0.0930     0.3330 c3         1 ZOF      -0.094400
      8 CAQ         -3.7820    -0.6580     1.0810 c3         1 ZOF       0.096000
      9 NAO         -2.4850     0.0090     0.9490 ns         1 ZOF      -0.499900
     10 CAN         -1.6590    -0.0820    -0.1500 c          1 ZOF       0.595100
     11 OAP         -1.9430    -0.7560    -1.1300 o          1 ZOF      -0.619100
     12 CAM         -0.3750     0.7500    -0.0650 c3         1 ZOF      -0.158400
     13 CAL          0.8670    -0.1430     0.1690 c3         1 ZOF      -0.066400
     14 CAK          2.1810     0.6640     0.2660 c3         1 ZOF      -0.078400
     15 CAI          3.4230    -0.2270     0.5010 c3         1 ZOF      -0.058400
     16 CAH          4.7560     0.5560     0.6460 c5         1 ZOF       0.077300
     17 SAG          5.2360     1.4090    -0.9320 ss         1 ZOF      -0.404000
     18 CAF          6.8810     1.7800    -0.1600 c5         1 ZOF       0.023600
     19 CAC          7.3060     0.5240     0.6890 c5         1 ZOF       0.219500
     20 CAD          6.0170    -0.2850     1.0960 c5         1 ZOF       0.210500
     21 NAE          6.0990    -1.4980     0.2260 nu         1 ZOF      -0.944400
     22 CAA          7.0150    -1.2360    -0.7010 c2         1 ZOF       0.821100
     23 NAJ          7.2810    -2.0970    -1.5570 n2         1 ZOF      -0.890100
     24 NAB          7.9590    -0.4080    -0.2650 nu         1 ZOF      -0.913400
     25 H2          -9.0110    -0.5100     0.9660 hc         1 ZOF       0.015700
     26 H3          -8.6870    -1.5130    -0.5390 hc         1 ZOF       0.015700
     27 H4          -7.1540     0.2330    -1.3260 hc         1 ZOF       0.038200
     28 H5          -7.4670     1.1960     0.1170 hc         1 ZOF       0.038200
     29 H6          -6.5350    -0.6480     1.5500 hc         1 ZOF       0.029200
     30 H7          -6.2210    -1.6110     0.1050 hc         1 ZOF       0.029200
     31 H8          -4.6470     0.1570    -0.7320 hc         1 ZOF       0.038700
     32 H9          -4.9590     1.1210     0.7130 hc         1 ZOF       0.038700
     33 H10         -4.0330    -0.7200     2.1480 h1         1 ZOF       0.050200
     34 H11         -3.7000    -1.6830     0.6940 h1         1 ZOF       0.050200
     35 H12         -2.1650     0.5970     1.7100 hn         1 ZOF       0.308500
     36 H13         -0.2420     1.2870    -1.0120 hc         1 ZOF       0.055200
     37 H14         -0.4470     1.4680     0.7610 hc         1 ZOF       0.055200
     38 H15          0.7270    -0.7180     1.0930 hc         1 ZOF       0.051700
     39 H16          0.9490    -0.8690    -0.6490 hc         1 ZOF       0.051700
     40 H17          2.3130     1.2400    -0.6580 hc         1 ZOF       0.045200
     41 H18          2.0990     1.3900     1.0850 hc         1 ZOF       0.045200
     42 H19          3.2580    -0.8180     1.4100 hc         1 ZOF       0.052200
     43 H20          3.4990    -0.9450    -0.3250 hc         1 ZOF       0.052200
     44 H21          4.5890     1.3400     1.3970 h1         1 ZOF       0.068700
     45 H22          7.6230     2.0530    -0.9220 h1         1 ZOF       0.074700
     46 H23          6.7580     2.6480     0.5000 h1         1 ZOF       0.074700
     47 H24          7.9450     0.7910     1.5440 h1         1 ZOF       0.071700
     48 H25          5.9890    -0.5310     2.1670 h1         1 ZOF       0.058700
     49 H26          6.2740    -2.3910     0.6730 hn         1 ZOF       0.489000
     50 H27          6.4860    -2.7430    -1.5490 hn         1 ZOF       0.386400
     51 H28          8.5290    -0.0580    -1.0260 hn         1 ZOF       0.506000
@<TRIPOS>BOND
     1     1     2 1   
     2     2     3 1   
     3     2     4 1   
     4     4     5 1   
     5     4    25 1   
     6     4    26 1   
     7     5     6 1   
     8     5    27 1   
     9     5    28 1   
    10     6     7 1   
    11     6    29 1   
    12     6    30 1   
    13     7     8 1   
    14     7    31 1   
    15     7    32 1   
    16     8     9 1   
    17     8    33 1   
    18     8    34 1   
    19     9    10 1   
    20     9    35 1   
    21    10    11 2   
    22    10    12 1   
    23    12    13 1   
    24    12    36 1   
    25    12    37 1   
    26    13    14 1   
    27    13    38 1   
    28    13    39 1   
    29    14    15 1   
    30    14    40 1   
    31    14    41 1   
    32    15    16 1   
    33    15    42 1   
    34    15    43 1   
    35    16    17 1   
    36    16    20 1   
    37    16    44 1   
    38    17    18 1   
    39    18    19 1   
    40    18    45 1   
    41    18    46 1   
    42    19    20 1   
    43    19    24 1   
    44    19    47 1   
    45    20    21 1   
    46    20    48 1   
    47    21    22 1   
    48    21    49 1   
    49    22    23 2   
    50    22    24 1   
    51    23    50 1   
    52    24    51 1   
@<TRIPOS>SUBSTRUCTURE
     1 ZOF         1 TEMP              0 ****  ****    0 ROOT
