@<TRIPOS>MOLECULE
ZOF
   51    52     1     0     0
SMALL
bcc


@<TRIPOS>ATOM
      1 OAW        -11.1770     0.0440     0.6090 o          1 ZOF      -0.847800
      2 CAV        -10.0850     0.6330     0.4600 c          1 ZOF       0.928600
      3 OAX         -9.9220     1.8630     0.3460 o          1 ZOF      -0.847800
      4 CAU         -8.8380    -0.2680     0.4140 c3         1 ZOF      -0.205400
      5 CAT         -7.5030     0.4420     0.2620 c3         1 ZOF      -0.053400
      6 CAS         -6.3270    -0.5260     0.2220 c3         1 ZOF      -0.078400
      7 CAR         -4.9850     0.1740     0.0550 c3         1 ZOF      -0.094400
      8 CAQ         -3.8300    -0.8130    -0.0000 c3         1 ZOF       0.096000
      9 NAO         -2.5640    -0.1250    -0.1430 ns         1 ZOF      -0.566900
     10 CAN         -1.4550    -0.6930    -0.6400 c          1 ZOF       0.662100
     11 OAP         -1.4230    -1.8560    -1.0290 o          1 ZOF      -0.619100
     12 CAM         -0.2370     0.2030    -0.7030 c3         1 ZOF      -0.158400
     13 CAL          0.9930    -0.4540    -0.0860 c3         1 ZOF      -0.066400
     14 CAK          2.2160     0.4520    -0.1360 c3         1 ZOF      -0.078400
     15 CAI          3.4470    -0.2120     0.4680 c3         1 ZOF      -0.058400
     16 CAH          4.6550     0.7030     0.5540 c5         1 ZOF       0.029400
     17 SAG          5.2340     1.2720    -1.0780 ss         1 ZOF      -0.308200
     18 CAF          6.7430     1.9000    -0.2960 c5         1 ZOF      -0.024300
     19 CAC          7.1460     0.8780     0.7770 c5         1 ZOF       0.219500
     20 CAD          5.8930     0.0560     1.1850 c5         1 ZOF       0.210500
     21 NAE          6.1750    -1.2500     0.6390 nu         1 ZOF      -0.889200
     22 CAA          7.4560    -1.3630     0.1630 c2         1 ZOF       0.821100
     23 NAJ          8.0500    -2.3840    -0.3300 n2         1 ZOF      -0.890100
     24 NAB          8.0500    -0.1440     0.3140 nu         1 ZOF      -0.858200
     25 H2          -8.8280    -0.8830     1.3210 hc         1 ZOF       0.015700
     26 H3          -8.9660    -0.9840    -0.4070 hc         1 ZOF       0.015700
     27 H4          -7.5040     1.0450    -0.6510 hc         1 ZOF       0.038200
     28 H5          -7.3620     1.1470     1.0870 hc         1 ZOF       0.038200
     29 H6          -6.3140    -1.1250     1.1390 hc         1 ZOF       0.029200
     30 H7          -6.4680    -1.2370    -0.6000 hc         1 ZOF       0.029200
     31 H8          -4.9900     0.7740    -0.8610 hc         1 ZOF       0.038700
     32 H9          -4.8330     0.8720     0.8850 hc         1 ZOF       0.038700
     33 H10         -3.8290    -1.4350     0.9020 h1         1 ZOF       0.050200
     34 H11         -3.9600    -1.4890    -0.8470 h1         1 ZOF       0.050200
     35 H12         -2.5010     0.8130     0.2190 hn         1 ZOF       0.308500
     36 H13         -0.0440     0.4240    -1.7570 hc         1 ZOF       0.055200
     37 H14         -0.4330     1.1620    -0.2170 hc         1 ZOF       0.055200
     38 H15          0.7810    -0.7170     0.9560 hc         1 ZOF       0.051700
     39 H16          1.2100    -1.3910    -0.6050 hc         1 ZOF       0.051700
     40 H17          2.4170     0.7330    -1.1750 hc         1 ZOF       0.045200
     41 H18          2.0020     1.3850     0.3970 hc         1 ZOF       0.045200
     42 H19          3.2100    -0.5480     1.4830 hc         1 ZOF       0.052200
     43 H20          3.7050    -1.1060    -0.1050 hc         1 ZOF       0.052200
     44 H21          4.3950     1.5880     1.1440 h1         1 ZOF       0.068700
     45 H22          7.5220     2.0450    -1.0440 h1         1 ZOF       0.074700
     46 H23          6.5370     2.8660     0.1680 h1         1 ZOF       0.074700
     47 H24          7.5710     1.4120     1.6300 h1         1 ZOF       0.071700
     48 H25          5.7680     0.0160     2.2720 h1         1 ZOF       0.058700
     49 H26          5.7260    -2.0620     1.0290 hn         1 ZOF       0.433800
     50 H27          7.4250    -3.1810    -0.3490 hn         1 ZOF       0.386400
     51 H28          8.8550     0.0900    -0.2420 hn         1 ZOF       0.450800
@<TRIPOS>BOND
     1     1     2 1   
     2     2     3 1   
     3     2     4 1   
     4     4     5 1   
     5     4    25 1   
     6     4    26 1   
     7     5     6 1   
     8     5    27 1   
     9     5    28 1   
    10     6     7 1   
    11     6    29 1   
    12     6    30 1   
    13     7     8 1   
    14     7    31 1   
    15     7    32 1   
    16     8     9 1   
    17     8    33 1   
    18     8    34 1   
    19     9    10 1   
    20     9    35 1   
    21    10    11 2   
    22    10    12 1   
    23    12    13 1   
    24    12    36 1   
    25    12    37 1   
    26    13    14 1   
    27    13    38 1   
    28    13    39 1   
    29    14    15 1   
    30    14    40 1   
    31    14    41 1   
    32    15    16 1   
    33    15    42 1   
    34    15    43 1   
    35    16    17 1   
    36    16    20 1   
    37    16    44 1   
    38    17    18 1   
    39    18    19 1   
    40    18    45 1   
    41    18    46 1   
    42    19    20 1   
    43    19    24 1   
    44    19    47 1   
    45    20    21 1   
    46    20    48 1   
    47    21    22 1   
    48    21    49 1   
    49    22    23 2   
    50    22    24 1   
    51    23    50 1   
    52    24    51 1   
@<TRIPOS>SUBSTRUCTURE
     1 ZOF         1 TEMP              0 ****  ****    0 ROOT
