@<TRIPOS>MOLECULE
ZOG
   50    52     1     0     0
SMALL
bcc


@<TRIPOS>ATOM
      1 C7          22.2280    45.0810   -26.9470 ca         1 ZOG      -0.145000
      2 C8          22.1400    44.0820   -27.8920 ca         1 ZOG       0.090900
      3 C9          22.1910    42.7550   -27.5020 ca         1 ZOG       0.094900
      4 O1          21.2900    46.5860   -15.5660 o          1 ZOG      -0.843800
      5 C1          24.0960    42.1310   -21.9660 c6         1 ZOG       0.195800
      6 C5          22.4150    43.4100   -25.2010 ca         1 ZOG      -0.057300
      7 C6          22.3620    44.7390   -25.6070 ca         1 ZOG      -0.115000
      8 C4          22.5700    43.0580   -23.7430 c6         1 ZOG      -0.018400
      9 O4          22.2280    39.2340   -20.2620 o          1 ZOG      -0.617300
     10 C3          21.4970    42.0850   -23.2540 c6         1 ZOG      -0.069400
     11 O3          24.6670    39.8060   -20.2920 o          1 ZOG      -0.617300
     12 C2          21.6940    41.7340   -21.7890 c6         1 ZOG       0.195800
     13 C11         23.0470    41.2780   -18.8510 ca         1 ZOG      -0.298500
     14 C16         21.7910    41.3650   -18.2690 ca         1 ZOG      -0.058500
     15 C15         21.6090    42.1970   -17.1760 ca         1 ZOG      -0.110000
     16 C14         22.6700    42.9340   -16.6560 ca         1 ZOG      -0.089600
     17 C17         22.5150    43.8040   -15.4420 c          1 ZOG       0.590700
     18 O2          23.4930    44.3290   -14.9590 o          1 ZOG      -0.497100
     19 C18         21.1470    43.9380   -14.8300 c3         1 ZOG      -0.130400
     20 C19         21.0570    45.0230   -13.7780 c3         1 ZOG      -0.208400
     21 C20         21.2550    46.4510   -14.3270 c          1 ZOG       0.935600
     22 O           21.3370    47.3550   -13.4710 o          1 ZOG      -0.843800
     23 C13         23.9230    42.8340   -17.2600 ca         1 ZOG      -0.110000
     24 C12         24.1190    42.0120   -18.3560 ca         1 ZOG      -0.058500
     25 N           23.0400    41.1860   -21.5990 n3         1 ZOG      -0.730500
     26 C           23.9560    42.4870   -23.4390 c6         1 ZOG      -0.069400
     27 C10         22.3330    42.4130   -26.1750 ca         1 ZOG      -0.142000
     28 F           22.0980    41.8020   -28.4370 f          1 ZOG      -0.130900
     29 F1          22.0020    44.3760   -29.1900 f          1 ZOG      -0.130900
     30 H1          22.1870    46.1180   -27.2550 ha         1 ZOG       0.152000
     31 H2          25.0700    41.6800   -21.7910 h1         1 ZOG       0.059700
     32 H3          24.0300    43.0400   -21.3530 h1         1 ZOG       0.059700
     33 H4          22.4250    45.5270   -24.8680 ha         1 ZOG       0.144000
     34 H5          22.4630    43.9850   -23.1680 hc         1 ZOG       0.058700
     35 H6          20.5050    42.5250   -23.3760 hc         1 ZOG       0.052950
     36 H7          21.5180    41.1640   -23.8410 hc         1 ZOG       0.052950
     37 H8          21.5550    42.6270   -21.1660 h1         1 ZOG       0.059700
     38 H9          20.9500    40.9980   -21.4910 h1         1 ZOG       0.059700
     39 H10         20.9600    40.7850   -18.6450 ha         1 ZOG       0.143000
     40 H11         20.6270    42.2460   -16.7260 ha         1 ZOG       0.151500
     41 H12         20.4100    44.1120   -15.6160 hc         1 ZOG       0.038700
     42 H13         20.8940    42.9590   -14.4030 hc         1 ZOG       0.038700
     43 H14         20.0670    44.9710   -13.3120 hc         1 ZOG       0.029200
     44 H15         21.7680    44.8400   -12.9690 hc         1 ZOG       0.029200
     45 H17         24.7590    43.3950   -16.8650 ha         1 ZOG       0.151500
     46 H18         25.1010    41.9380   -18.8020 ha         1 ZOG       0.143000
     47 H19         24.1370    41.5930   -24.0410 hc         1 ZOG       0.052950
     48 H20         24.7300    43.2130   -23.6950 hc         1 ZOG       0.052950
     49 H21         22.3780    41.3640   -25.9110 ha         1 ZOG       0.156000
     50 S           23.2800    40.2350   -20.2720 sy         1 ZOG       1.301200
@<TRIPOS>BOND
     1     1     2 ar  
     2     1     7 ar  
     3     1    30 1   
     4     2     3 ar  
     5     2    29 1   
     6     3    27 ar  
     7     3    28 1   
     8     4    21 1   
     9     5    25 1   
    10     5    26 1   
    11     5    31 1   
    12     5    32 1   
    13     6     7 ar  
    14     6     8 1   
    15     6    27 ar  
    16     7    33 1   
    17     8    10 1   
    18     8    26 1   
    19     8    34 1   
    20     9    50 2   
    21    10    12 1   
    22    10    35 1   
    23    10    36 1   
    24    11    50 2   
    25    12    25 1   
    26    12    37 1   
    27    12    38 1   
    28    13    14 ar  
    29    13    24 ar  
    30    13    50 1   
    31    14    15 ar  
    32    14    39 1   
    33    15    16 ar  
    34    15    40 1   
    35    16    17 1   
    36    16    23 ar  
    37    17    18 2   
    38    17    19 1   
    39    19    20 1   
    40    19    41 1   
    41    19    42 1   
    42    20    21 1   
    43    20    43 1   
    44    20    44 1   
    45    21    22 1   
    46    23    24 ar  
    47    23    45 1   
    48    24    46 1   
    49    25    50 1   
    50    26    47 1   
    51    26    48 1   
    52    27    49 1   
@<TRIPOS>SUBSTRUCTURE
     1 ZOG         1 TEMP              0 ****  ****    0 ROOT
