@<TRIPOS>MOLECULE
ZOG
   50    52     1     0     0
SMALL
No Charge or Current Charge


@<TRIPOS>ATOM
      1 C7          21.6390    45.7250   -25.8340 ca         1 ZOG      -0.127000
      2 C8          21.8370    45.0190   -27.0300 ca         1 ZOG       0.126000
      3 C9          22.2440    43.6730   -26.9930 ca         1 ZOG       0.130000
      4 O1          20.3900    45.9310   -17.8290 o          1 ZOG      -0.738500
      5 C1          24.1370    41.8710   -21.6490 c6         1 ZOG       0.195800
      6 C5          22.2560    43.7350   -24.5510 ca         1 ZOG      -0.057300
      7 C6          21.8480    45.0850   -24.5980 ca         1 ZOG      -0.097000
      8 C4          22.4800    43.0480   -23.1950 c6         1 ZOG      -0.018400
      9 O4          22.5050    38.6790   -20.1510 o          1 ZOG      -0.546500
     10 C3          21.5280    41.8450   -22.9830 c6         1 ZOG      -0.069400
     11 O3          24.9470    39.4100   -20.1870 o          1 ZOG      -0.546500
     12 C2          21.7880    41.1610   -21.6190 c6         1 ZOG       0.195800
     13 C11         23.2040    40.8580   -18.7440 ca         1 ZOG      -0.298500
     14 C16         21.9160    40.9460   -18.1790 ca         1 ZOG      -0.040500
     15 C15         21.6700    41.8170   -17.1040 ca         1 ZOG      -0.092000
     16 C14         22.7080    42.6190   -16.5730 ca         1 ZOG      -0.089600
     17 C17         22.4870    43.5610   -15.4050 c          1 ZOG       0.590700
     18 O2          23.3910    43.7660   -14.6010 o          1 ZOG      -0.497100
     19 C18         21.1170    44.2500   -15.2030 c3         1 ZOG      -0.130400
     20 C19         21.1510    45.7580   -15.5890 c3         1 ZOG      -0.208400
     21 C20         21.3700    45.9310   -17.1020 c          1 ZOG       0.725000
     22 O           22.5190    46.0040   -17.5080 o          1 ZOG      -0.738500
     23 C13         24.0000    42.5080   -17.1340 ca         1 ZOG      -0.092000
     24 C12         24.2470    41.6400   -18.2100 ca         1 ZOG      -0.040500
     25 N           23.2040    40.7230   -21.4910 n3         1 ZOG      -0.730500
     26 C           23.9440    42.5750   -23.0130 c6         1 ZOG      -0.069400
     27 C10         22.4530    43.0320   -25.7600 ca         1 ZOG      -0.124000
     28 F           22.4380    42.9850   -28.1420 f          1 ZOG      -0.166000
     29 F1          21.6340    45.6410   -28.2150 f          1 ZOG      -0.166000
     30 H1          21.3240    46.7650   -25.8640 ha         1 ZOG       0.134000
     31 H2          25.1830    41.5370   -21.5860 h1         1 ZOG       0.059700
     32 H3          23.9850    42.6060   -20.8440 h1         1 ZOG       0.059700
     33 H4          21.6910    45.6420   -23.6770 ha         1 ZOG       0.126000
     34 H5          22.2700    43.7770   -22.4000 hc         1 ZOG       0.058700
     35 H6          20.4830    42.1810   -23.0330 hc         1 ZOG       0.052950
     36 H7          21.6580    41.1060   -23.7840 hc         1 ZOG       0.052950
     37 H8          21.5260    41.8630   -20.8130 h1         1 ZOG       0.059700
     38 H9          21.1030    40.3050   -21.5350 h1         1 ZOG       0.059700
     39 H10         21.1000    40.3380   -18.5680 ha         1 ZOG       0.125000
     40 H11         20.6700    41.8390   -16.6790 ha         1 ZOG       0.133500
     41 H12         20.3370    43.7780   -15.8080 hc         1 ZOG       0.038700
     42 H13         20.8460    44.1800   -14.1430 hc         1 ZOG       0.038700
     43 H14         20.1670    46.1520   -15.3050 hc         1 ZOG       0.029200
     44 H15         21.9790    46.2020   -15.0230 hc         1 ZOG       0.029200
     45 H17         24.8190    43.1070   -16.7400 ha         1 ZOG       0.133500
     46 H18         25.2520    41.5800   -18.6260 ha         1 ZOG       0.125000
     47 H19         24.2260    41.8820   -23.8160 hc         1 ZOG       0.052950
     48 H20         24.6270    43.4320   -23.0850 hc         1 ZOG       0.052950
     49 H21         22.7670    41.9920   -25.7500 ha         1 ZOG       0.138000
     50 S           23.5180    39.7420   -20.1300 sy         1 ZOG       1.159600
@<TRIPOS>BOND
     1     1     2 ar  
     2     1     7 ar  
     3     1    30 1   
     4     2     3 ar  
     5     2    29 1   
     6     3    27 ar  
     7     3    28 1   
     8     4    21 1   
     9     5    25 1   
    10     5    26 1   
    11     5    31 1   
    12     5    32 1   
    13     6     7 ar  
    14     6     8 1   
    15     6    27 ar  
    16     7    33 1   
    17     8    10 1   
    18     8    26 1   
    19     8    34 1   
    20     9    50 2   
    21    10    12 1   
    22    10    35 1   
    23    10    36 1   
    24    11    50 2   
    25    12    25 1   
    26    12    37 1   
    27    12    38 1   
    28    13    14 ar  
    29    13    24 ar  
    30    13    50 1   
    31    14    15 ar  
    32    14    39 1   
    33    15    16 ar  
    34    15    40 1   
    35    16    17 1   
    36    16    23 ar  
    37    17    18 2   
    38    17    19 1   
    39    19    20 1   
    40    19    41 1   
    41    19    42 1   
    42    20    21 1   
    43    20    43 1   
    44    20    44 1   
    45    21    22 1   
    46    23    24 ar  
    47    23    45 1   
    48    24    46 1   
    49    25    50 1   
    50    26    47 1   
    51    26    48 1   
    52    27    49 1   
@<TRIPOS>SUBSTRUCTURE
     1 ZOG         1 TEMP              0 ****  ****    0 ROOT
