@<TRIPOS>MOLECULE
ZOI
   48    51     1     0     0
SMALL
abcg2


@<TRIPOS>ATOM
      1 C1           5.0940    14.8610   -56.1500 ca         1 ZOI       0.452900
      2 C11          4.6940    18.5920   -53.3610 ca         1 ZOI       0.453800
      3 C12          5.5890    12.8260   -54.7690 c          1 ZOI       0.653100
      4 C16          5.4720    17.7970   -51.3290 ca         1 ZOI       0.341300
      5 C17          4.9480    18.8860   -50.6400 ca         1 ZOI      -0.149000
      6 C18          4.2760    19.8630   -51.3670 ca         1 ZOI      -0.073000
      7 C19          4.1410    19.7200   -52.7370 ca         1 ZOI      -0.164000
      8 C20          6.1720    16.6700   -50.5940 c5         1 ZOI       0.097700
      9 C21          7.1340    17.1190   -49.4900 c5         1 ZOI      -0.102400
     10 C22          8.0470    15.9060   -49.3200 c5         1 ZOI       0.158600
     11 C24          7.1190    15.8520   -51.4750 c5         1 ZOI       0.140600
     12 C3           4.6060    16.3890   -57.8170 ca         1 ZOI       0.368900
     13 C4           4.5280    17.4010   -56.8730 ca         1 ZOI      -0.147200
     14 C5           4.7550    17.1230   -55.5020 ca         1 ZOI      -0.004800
     15 C6           5.0470    15.8070   -55.1330 ca         1 ZOI      -0.115000
     16 C8           4.2650    19.3080   -55.7620 cc         1 ZOI      -0.111100
     17 C9           4.5790    18.3650   -54.7960 cd         1 ZOI      -0.227000
     18 N10          5.3640    13.4990   -55.9440 ns         1 ZOI      -0.335900
     19 N13          5.8160    11.4860   -54.9320 nt         1 ZOI      -0.598000
     20 N15          5.3470    17.6560   -52.6500 nb         1 ZOI      -0.673000
     21 N2           4.8860    15.1410   -57.4550 nb         1 ZOI      -0.720000
     22 N7           4.2370    18.7450   -57.0010 na         1 ZOI      -0.080700
     23 O14          5.6290    13.3640   -53.6620 o          1 ZOI      -0.632100
     24 O23          8.0190    15.1970   -50.5740 os         1 ZOI      -0.464000
     25 O25          5.2090    15.8250   -49.9350 os         1 ZOI      -0.460000
     26 H34          5.0590    18.9670   -49.5680 ha         1 ZOI       0.129000
     27 H35          3.8540    20.7240   -50.8650 ha         1 ZOI       0.118000
     28 H36          3.6020    20.4570   -53.3160 ha         1 ZOI       0.116000
     29 H37          7.6970    17.9860   -49.8350 hc         1 ZOI       0.061200
     30 H38          6.6080    17.3840   -48.5760 hc         1 ZOI       0.061200
     31 H39          7.6870    15.2360   -48.5360 h1         1 ZOI       0.045700
     32 H40          9.0760    16.1900   -49.0910 h1         1 ZOI       0.045700
     33 H42          6.6160    15.0970   -52.0750 h1         1 ZOI       0.072200
     34 H41          7.6670    16.5220   -52.1440 h1         1 ZOI       0.072200
     35 H43          3.6320    14.5770   -50.1250 h1         1 ZOI       0.038700
     36 H44          3.5160    16.0310   -51.1410 h1         1 ZOI       0.038700
     37 H45          4.6090    14.7080   -51.6040 h1         1 ZOI       0.038700
     38 H46          3.7780    20.4830   -58.0370 h1         1 ZOI       0.053033
     39 H48          4.8090    19.3450   -58.9280 h1         1 ZOI       0.053033
     40 H47          3.0760    19.0050   -58.7290 h1         1 ZOI       0.053033
     41 H28          4.4420    16.5740   -58.8730 h4         1 ZOI       0.019100
     42 H29          5.2320    15.5330   -54.1120 ha         1 ZOI       0.175000
     43 H30          4.0700    20.3630   -55.6490 h4         1 ZOI       0.214000
     44 H31          5.3640    12.9650   -56.8000 hn         1 ZOI       0.159000
     45 H32          5.7930    10.9360   -54.0890 hn         1 ZOI       0.309500
     46 H33          5.5250    11.0170   -55.7750 hn         1 ZOI       0.309500
     47 C26          4.1930    15.2620   -50.7590 c3         1 ZOI       0.140900
     48 C27          3.9590    19.4320   -58.2490 c3         1 ZOI       0.065900
@<TRIPOS>BOND
     1     1    15 ar  
     2     1    18 1   
     3     1    21 ar  
     4     2     7 ar  
     5     2    17 1   
     6     2    20 ar  
     7     3    18 1   
     8     3    19 1   
     9     3    23 2   
    10     4     5 ar  
    11     4     8 1   
    12     4    20 ar  
    13     5     6 ar  
    14     5    26 1   
    15     6     7 ar  
    16     6    27 1   
    17     7    28 1   
    18     8     9 1   
    19     8    11 1   
    20     8    25 1   
    21     9    10 1   
    22     9    29 1   
    23     9    30 1   
    24    10    24 1   
    25    10    31 1   
    26    10    32 1   
    27    11    24 1   
    28    11    33 1   
    29    11    34 1   
    30    12    13 ar  
    31    12    21 ar  
    32    12    41 1   
    33    13    14 ar  
    34    13    22 1   
    35    14    15 ar  
    36    14    17 1   
    37    15    42 1   
    38    16    17 2   
    39    16    22 1   
    40    16    43 1   
    41    18    44 1   
    42    19    45 1   
    43    19    46 1   
    44    22    48 1   
    45    25    47 1   
    46    35    47 1   
    47    36    47 1   
    48    37    47 1   
    49    38    48 1   
    50    39    48 1   
    51    40    48 1   
@<TRIPOS>SUBSTRUCTURE
     1 ZOI         1 TEMP              0 ****  ****    0 ROOT
