@<TRIPOS>MOLECULE
ZOI
   48    51     1     0     0
SMALL
No Charge or Current Charge


@<TRIPOS>ATOM
      1 C1           5.1620    14.8800   -56.1860 ca         1 ZOI       0.452900
      2 C11          4.7370    18.6370   -53.3820 ca         1 ZOI       0.453800
      3 C12          5.7270    12.8090   -54.8680 c          1 ZOI       0.653100
      4 C16          5.4860    17.7770   -51.3270 ca         1 ZOI       0.341300
      5 C17          5.1270    18.9790   -50.6760 ca         1 ZOI      -0.149000
      6 C18          4.5860    20.0430   -51.4100 ca         1 ZOI      -0.073000
      7 C19          4.3970    19.8680   -52.7870 ca         1 ZOI      -0.164000
      8 C20          6.0630    16.5950   -50.4950 c5         1 ZOI       0.097700
      9 C21          7.1060    17.1170   -49.4560 c5         1 ZOI      -0.102400
     10 C22          8.0280    15.8860   -49.3460 c5         1 ZOI       0.158600
     11 C24          6.9230    15.5990   -51.3730 c5         1 ZOI       0.140600
     12 C3           4.5650    16.4090   -57.8320 ca         1 ZOI       0.368900
     13 C4           4.4740    17.4210   -56.8620 ca         1 ZOI      -0.147200
     14 C5           4.7380    17.1550   -55.5480 ca         1 ZOI      -0.004800
     15 C6           5.0900    15.8530   -55.1620 ca         1 ZOI      -0.115000
     16 C8           4.1600    19.4030   -55.7480 cc         1 ZOI      -0.111100
     17 C9           4.5440    18.4160   -54.8380 cd         1 ZOI      -0.227000
     18 N10          5.4960    13.5310   -56.0070 ns         1 ZOI      -0.335900
     19 N13          6.0320    11.5240   -55.1090 nt         1 ZOI      -0.598000
     20 N15          5.2680    17.6270   -52.6590 nb         1 ZOI      -0.673000
     21 N2           4.9120    15.1410   -57.4930 nb         1 ZOI      -0.720000
     22 N7           4.1290    18.7570   -56.9970 na         1 ZOI      -0.080700
     23 O14          5.6710    13.2400   -53.7320 o          1 ZOI      -0.632100
     24 O23          8.2170    15.5220   -50.7240 os         1 ZOI      -0.464000
     25 O25          5.0360    15.8640   -49.7550 os         1 ZOI      -0.460000
     26 H34          5.2620    19.0870   -49.6030 ha         1 ZOI       0.129000
     27 H35          4.3140    20.9770   -50.9230 ha         1 ZOI       0.118000
     28 H36          3.9750    20.6750   -53.3760 ha         1 ZOI       0.116000
     29 H37          7.6650    17.9840   -49.8280 hc         1 ZOI       0.061200
     30 H38          6.6590    17.3910   -48.4940 hc         1 ZOI       0.061200
     31 H39          7.5500    15.0540   -48.8100 h1         1 ZOI       0.045700
     32 H40          8.9950    16.1110   -48.8760 h1         1 ZOI       0.045700
     33 H42          6.4850    14.5930   -51.4020 h1         1 ZOI       0.072200
     34 H41          7.0790    15.9300   -52.4080 h1         1 ZOI       0.072200
     35 H43          3.2600    14.7580   -49.8210 h1         1 ZOI       0.038700
     36 H44          3.3540    16.0800   -50.9990 h1         1 ZOI       0.038700
     37 H45          4.2880    14.5870   -51.2570 h1         1 ZOI       0.038700
     38 H46          3.5520    20.4140   -58.1730 h1         1 ZOI       0.053033
     39 H48          4.6400    19.2490   -58.9840 h1         1 ZOI       0.053033
     40 H47          2.9170    18.8350   -58.7230 h1         1 ZOI       0.053033
     41 H28          4.3600    16.6020   -58.8850 h4         1 ZOI       0.019100
     42 H29          5.2930    15.6010   -54.1320 ha         1 ZOI       0.175000
     43 H30          3.9290    20.4570   -55.6280 h4         1 ZOI       0.214000
     44 H31          5.5700    13.0150   -56.8710 hn         1 ZOI       0.159000
     45 H32          6.2180    10.9110   -54.3300 hn         1 ZOI       0.309500
     46 H33          6.0740    11.1790   -56.0550 hn         1 ZOI       0.309500
     47 C26          3.9360    15.2970   -50.4970 c3         1 ZOI       0.140900
     48 C27          3.7890    19.3500   -58.2990 c3         1 ZOI       0.065900
@<TRIPOS>BOND
     1     1    15 ar  
     2     1    18 1   
     3     1    21 ar  
     4     2     7 ar  
     5     2    17 1   
     6     2    20 ar  
     7     3    18 1   
     8     3    19 1   
     9     3    23 2   
    10     4     5 ar  
    11     4     8 1   
    12     4    20 ar  
    13     5     6 ar  
    14     5    26 1   
    15     6     7 ar  
    16     6    27 1   
    17     7    28 1   
    18     8     9 1   
    19     8    11 1   
    20     8    25 1   
    21     9    10 1   
    22     9    29 1   
    23     9    30 1   
    24    10    24 1   
    25    10    31 1   
    26    10    32 1   
    27    11    24 1   
    28    11    33 1   
    29    11    34 1   
    30    12    13 ar  
    31    12    21 ar  
    32    12    41 1   
    33    13    14 ar  
    34    13    22 1   
    35    14    15 ar  
    36    14    17 1   
    37    15    42 1   
    38    16    17 2   
    39    16    22 1   
    40    16    43 1   
    41    18    44 1   
    42    19    45 1   
    43    19    46 1   
    44    22    48 1   
    45    25    47 1   
    46    35    47 1   
    47    36    47 1   
    48    37    47 1   
    49    38    48 1   
    50    39    48 1   
    51    40    48 1   
@<TRIPOS>SUBSTRUCTURE
     1 ZOI         1 TEMP              0 ****  ****    0 ROOT
