@<TRIPOS>MOLECULE
ZOK
   38    39     1     0     0
SMALL
abcg2


@<TRIPOS>ATOM
      1 N1         -19.2910    13.6170    25.5950 n          1 ZOK      -0.405800
      2 N3         -15.5030    16.9240    25.5760 ns         1 ZOK      -0.527900
      3 C4         -17.9060    13.4770    25.1430 c6         1 ZOK       0.092000
      4 C5         -17.2530    14.8370    24.9750 c6         1 ZOK       0.095000
      5 C7         -14.4280    17.8360    25.8410 c3         1 ZOK       0.062000
      6 C8         -14.6790    19.2320    25.2960 c3         1 ZOK       0.258000
      7 C10        -21.5130    12.6110    25.8220 cc         1 ZOK       0.061500
      8 C13        -23.5040    13.5400    25.8990 cc         1 ZOK       0.147900
      9 C1         -18.1650    14.4840    28.2820 c3         1 ZOK      -0.103100
     10 C11        -22.3890    11.6350    26.1970 cd         1 ZOK      -0.101000
     11 C12        -23.6780    12.2390    26.2550 cd         1 ZOK      -0.196000
     12 C2         -18.4710    15.3930    27.0930 c6         1 ZOK       0.111700
     13 C3         -19.6370    14.8830    26.2460 c6         1 ZOK       0.099000
     14 C9         -20.0690    12.5120    25.5410 c          1 ZOK       0.537600
     15 F1         -14.9190    19.2250    23.9640 f          1 ZOK      -0.113667
     16 F2         -15.7330    19.8430    25.8750 f          1 ZOK      -0.113667
     17 F3         -13.5990    20.0180    25.5000 f          1 ZOK      -0.113667
     18 N2         -17.3040    15.5990    26.2210 n          1 ZOK      -0.432800
     19 O1         -16.4690    17.1880    27.6190 o          1 ZOK      -0.631100
     20 O2         -19.6040    11.4060    25.2340 o          1 ZOK      -0.597100
     21 O3         -22.1950    13.7850    25.6330 os         1 ZOK      -0.248000
     22 H11        -15.5500    16.5210    24.6570 hn         1 ZOK       0.323500
     23 H7         -17.3350    12.8720    25.8520 h1         1 ZOK       0.066200
     24 H8         -17.8950    12.9560    24.1870 h1         1 ZOK       0.066200
     25 H10        -16.2150    14.6540    24.6980 h1         1 ZOK       0.048700
     26 H9         -17.7320    15.3850    24.1570 h1         1 ZOK       0.048700
     27 H12        -14.2780    17.9270    26.9150 h1         1 ZOK       0.091700
     28 H13        -13.5050    17.4790    25.3820 h1         1 ZOK       0.091700
     29 H16        -24.1740    14.3750    25.7860 h4         1 ZOK       0.056100
     30 H3         -17.3320    14.8920    28.8530 hc         1 ZOK       0.049700
     31 H2         -19.0380    14.4240    28.9360 hc         1 ZOK       0.049700
     32 H1         -17.9070    13.4740    27.9630 hc         1 ZOK       0.049700
     33 H14        -22.1370    10.6080    26.4050 ha         1 ZOK       0.158000
     34 H15        -24.6100    11.7690    26.5230 ha         1 ZOK       0.148000
     35 H4         -18.7650    16.3710    27.4730 h1         1 ZOK       0.080700
     36 H5         -20.4920    14.7360    26.8960 h1         1 ZOK       0.065200
     37 H6         -19.9050    15.6330    25.4990 h1         1 ZOK       0.065200
     38 C6         -16.4350    16.6020    26.5320 c          1 ZOK       0.662100
@<TRIPOS>BOND
     1     1     3 1   
     2     1    13 1   
     3     1    14 1   
     4     2     5 1   
     5     2    22 1   
     6     2    38 1   
     7     3     4 1   
     8     3    23 1   
     9     3    24 1   
    10     4    18 1   
    11     4    25 1   
    12     4    26 1   
    13     5     6 1   
    14     5    27 1   
    15     5    28 1   
    16     6    15 1   
    17     6    16 1   
    18     6    17 1   
    19     7    10 2   
    20     7    14 1   
    21     7    21 1   
    22     8    11 2   
    23     8    21 1   
    24     8    29 1   
    25     9    12 1   
    26     9    30 1   
    27     9    31 1   
    28     9    32 1   
    29    10    11 1   
    30    10    33 1   
    31    11    34 1   
    32    12    13 1   
    33    12    18 1   
    34    12    35 1   
    35    13    36 1   
    36    13    37 1   
    37    14    20 2   
    38    18    38 1   
    39    19    38 2   
@<TRIPOS>SUBSTRUCTURE
     1 ZOK         1 TEMP              0 ****  ****    0 ROOT
