@<TRIPOS>MOLECULE
ZOK
   38    39     1     0     0
SMALL
No Charge or Current Charge


@<TRIPOS>ATOM
      1 N1         -19.1940    13.4270    25.8640 n          1 ZOK      -0.405800
      2 N3         -15.4290    16.9050    25.6630 ns         1 ZOK      -0.527900
      3 C4         -17.7490    13.2310    25.5550 c6         1 ZOK       0.092000
      4 C5         -16.9460    14.5510    25.4190 c6         1 ZOK       0.095000
      5 C7         -14.5670    18.0980    25.5460 c3         1 ZOK       0.062000
      6 C8         -15.1690    19.2290    24.6750 c3         1 ZOK       0.258000
      7 C10        -21.6260    12.7900    25.5900 cc         1 ZOK       0.061500
      8 C13        -23.5420    13.8170    26.0510 cc         1 ZOK       0.147900
      9 C1         -17.8350    14.4580    28.6760 c3         1 ZOK      -0.103100
     10 C11        -22.6420    11.9440    25.2240 cd         1 ZOK      -0.101000
     11 C12        -23.8560    12.5960    25.5230 cd         1 ZOK      -0.196000
     12 C2         -18.2920    15.2740    27.4360 c6         1 ZOK       0.111700
     13 C3         -19.5080    14.6080    26.7230 c6         1 ZOK       0.099000
     14 C9         -20.1630    12.4880    25.4080 c          1 ZOK       0.537600
     15 F1         -15.4270    18.7890    23.4220 f          1 ZOK      -0.113667
     16 F2         -16.3250    19.6970    25.1990 f          1 ZOK      -0.113667
     17 F3         -14.3070    20.2660    24.5810 f          1 ZOK      -0.113667
     18 N2         -17.1580    15.5470    26.5100 n          1 ZOK      -0.432800
     19 O1         -16.5940    17.5520    27.4980 o          1 ZOK      -0.631100
     20 O2         -19.7940    11.4510    24.8660 o          1 ZOK      -0.597100
     21 O3         -22.1720    13.9570    26.0950 os         1 ZOK      -0.248000
     22 H11        -15.3420    16.1760    24.9670 hn         1 ZOK       0.323500
     23 H7         -17.3000    12.6110    26.3420 h1         1 ZOK       0.066200
     24 H8         -17.6390    12.6730    24.6140 h1         1 ZOK       0.066200
     25 H10        -15.8790    14.2960    25.3590 h1         1 ZOK       0.048700
     26 H9         -17.2250    15.0250    24.4670 h1         1 ZOK       0.048700
     27 H12        -14.3580    18.4950    26.5480 h1         1 ZOK       0.091700
     28 H13        -13.6060    17.7940    25.1110 h1         1 ZOK       0.091700
     29 H16        -24.1500    14.6350    26.4120 h4         1 ZOK       0.056100
     30 H3         -17.0260    14.9750    29.2060 hc         1 ZOK       0.049700
     31 H2         -18.6590    14.3250    29.3860 hc         1 ZOK       0.049700
     32 H1         -17.4670    13.4620    28.4060 hc         1 ZOK       0.049700
     33 H14        -22.5260    10.9580    24.7860 ha         1 ZOK       0.158000
     34 H15        -24.8570    12.2100    25.3620 ha         1 ZOK       0.148000
     35 H4         -18.6620    16.2340    27.8250 h1         1 ZOK       0.080700
     36 H5         -20.2290    14.3170    27.4990 h1         1 ZOK       0.065200
     37 H6         -19.9890    15.3690    26.0930 h1         1 ZOK       0.065200
     38 C6         -16.4030    16.7300    26.6160 c          1 ZOK       0.662100
@<TRIPOS>BOND
     1     1     3 1   
     2     1    13 1   
     3     1    14 1   
     4     2     5 1   
     5     2    22 1   
     6     2    38 1   
     7     3     4 1   
     8     3    23 1   
     9     3    24 1   
    10     4    18 1   
    11     4    25 1   
    12     4    26 1   
    13     5     6 1   
    14     5    27 1   
    15     5    28 1   
    16     6    15 1   
    17     6    16 1   
    18     6    17 1   
    19     7    10 2   
    20     7    14 1   
    21     7    21 1   
    22     8    11 2   
    23     8    21 1   
    24     8    29 1   
    25     9    12 1   
    26     9    30 1   
    27     9    31 1   
    28     9    32 1   
    29    10    11 1   
    30    10    33 1   
    31    11    34 1   
    32    12    13 1   
    33    12    18 1   
    34    12    35 1   
    35    13    36 1   
    36    13    37 1   
    37    14    20 2   
    38    18    38 1   
    39    19    38 2   
@<TRIPOS>SUBSTRUCTURE
     1 ZOK         1 TEMP              0 ****  ****    0 ROOT
