@<TRIPOS>MOLECULE
ZOL
   22    22     1     0     0
SMALL
bcc


@<TRIPOS>ATOM
      1 O17         -0.2120    -2.6570     0.8790 o          1 ZOL      -0.955167
      2 P14         -0.6740    -1.6140    -0.1660 p5         1 ZOL       1.185200
      3 O16          0.3260    -1.4640    -1.3170 o          1 ZOL      -0.955167
      4 O15         -2.1180    -1.8610    -0.6340 o          1 ZOL      -0.955167
      5 C8          -0.7320    -0.0190     0.8080 c3         1 ZOL      -0.173600
      6 P9          -1.3060     1.5460    -0.0930 p5         1 ZOL       1.185200
      7 O10         -2.7940     1.5630     0.3780 o          1 ZOL      -0.955167
      8 O11         -0.5240     2.7340     0.5040 o          1 ZOL      -0.955167
      9 O12         -1.1520     1.4210    -1.6040 o          1 ZOL      -0.955167
     10 O13         -1.7160    -0.1840     1.8480 oh         1 ZOL      -0.700800
     11 C7           0.5700     0.1950     1.5730 c3         1 ZOL       0.100300
     12 N15          1.7720     0.2450     0.7630 na         1 ZOL      -0.095900
     13 C16          2.5960    -0.7870     0.5190 cc         1 ZOL       0.417400
     14 N17          3.6080    -0.4490    -0.2430 nd         1 ZOL      -0.804000
     15 C18          3.4040     0.8750    -0.5260 cd         1 ZOL       0.171200
     16 C19          2.2650     1.3190     0.0840 cc         1 ZOL      -0.216600
     17 H13         -2.4400     0.3920     1.4900 ho         1 ZOL       0.431000
     18 H71          0.5240     1.1170     2.1540 h1         1 ZOL       0.004700
     19 H72          0.7050    -0.6360     2.2680 h1         1 ZOL       0.004700
     20 H16          2.3890    -1.7700     0.9130 h5         1 ZOL       0.061100
     21 H18          4.0870     1.4380    -1.1460 h4         1 ZOL      -0.049900
     22 H19          1.7420     2.2600     0.0950 h4         1 ZOL       0.212000
@<TRIPOS>BOND
     1     1     2 1   
     2     2     3 1   
     3     2     4 1   
     4     2     5 1   
     5     5     6 1   
     6     5    10 1   
     7     5    11 1   
     8     6     7 1   
     9     6     8 1   
    10     6     9 1   
    11    10    17 1   
    12    11    12 1   
    13    11    18 1   
    14    11    19 1   
    15    12    13 1   
    16    12    16 1   
    17    13    14 2   
    18    13    20 1   
    19    14    15 1   
    20    15    16 2   
    21    15    21 1   
    22    16    22 1   
@<TRIPOS>SUBSTRUCTURE
     1 ZOL         1 TEMP              0 ****  ****    0 ROOT
