@<TRIPOS>MOLECULE
ZOL
   22    22     1     0     0
SMALL
No Charge or Current Charge


@<TRIPOS>ATOM
      1 O17         -0.6740    -2.6950     0.9070 o          1 ZOL      -0.955167
      2 P14         -0.9390    -1.5560    -0.0250 p5         1 ZOL       1.343000
      3 O16          0.0640    -1.6630    -1.1220 o          1 ZOL      -0.955167
      4 O15         -2.3210    -1.7360    -0.5600 o          1 ZOL      -0.955167
      5 C8          -0.8000    -0.0030     1.0110 c3         1 ZOL      -0.466000
      6 P9          -1.2200     1.3330    -0.2270 p5         1 ZOL       1.343000
      7 O10         -2.7090     1.4210    -0.3290 o          1 ZOL      -0.955167
      8 O11         -0.7750     2.6300     0.3650 o          1 ZOL      -0.955167
      9 O12         -0.6170     1.2000    -1.5840 o          1 ZOL      -0.955167
     10 O13         -1.7300     0.0270     2.1910 oh         1 ZOL      -0.763000
     11 C7           0.6460     0.1580     1.5770 c3         1 ZOL       0.129600
     12 N15          1.7890     0.2680     0.6460 na         1 ZOL      -0.074500
     13 C16          2.6100    -0.7680     0.2460 cc         1 ZOL       0.417400
     14 N17          3.6660    -0.3090    -0.4280 nd         1 ZOL      -0.804000
     15 C18          3.5000     1.0550    -0.4790 cd         1 ZOL       0.105900
     16 C19          2.3630     1.4360     0.1850 cc         1 ZOL      -0.184000
     17 H13         -2.6310     0.2030     1.8220 ho         1 ZOL       0.470000
     18 H71          0.6720     1.0510     2.2150 h1         1 ZOL       0.004700
     19 H72          0.8560    -0.6940     2.2370 h1         1 ZOL       0.004700
     20 H16          2.4110    -1.8010     0.5120 h5         1 ZOL       0.061100
     21 H18          4.2200     1.6900    -0.9770 h4         1 ZOL      -0.049900
     22 H19          1.9390     2.4160     0.3630 h4         1 ZOL       0.194000
@<TRIPOS>BOND
     1     1     2 1   
     2     2     3 1   
     3     2     4 1   
     4     2     5 1   
     5     5     6 1   
     6     5    10 1   
     7     5    11 1   
     8     6     7 1   
     9     6     8 1   
    10     6     9 1   
    11    10    17 1   
    12    11    12 1   
    13    11    18 1   
    14    11    19 1   
    15    12    13 1   
    16    12    16 1   
    17    13    14 2   
    18    13    20 1   
    19    14    15 1   
    20    15    16 2   
    21    15    21 1   
    22    16    22 1   
@<TRIPOS>SUBSTRUCTURE
     1 ZOL         1 TEMP              0 ****  ****    0 ROOT
