@<TRIPOS>MOLECULE
ZOM
   33    34     1     0     0
SMALL
No Charge or Current Charge


@<TRIPOS>ATOM
      1 Cl          -6.0280     0.4700    -1.2660 cl         1 ZOM      -0.226000
      2 N1           1.9520    -0.5660     0.5160 na         1 ZOM       0.091000
      3 C2           2.8420    -0.4150    -0.5560 cc         1 ZOM      -0.021300
      4 C3           2.1990     0.3870    -1.4520 cd         1 ZOM      -0.238000
      5 C4           0.9230     0.7350    -0.9720 cd         1 ZOM      -0.077300
      6 C5           0.7390     0.0860     0.2350 cc         1 ZOM      -0.322600
      7 O6          -0.3100     0.2370     2.3570 o          1 ZOM      -0.560100
      8 C8           5.2460    -0.2370     0.2200 c          1 ZOM       0.722000
      9 OH           5.7730     0.7650    -0.2390 o          1 ZOM      -0.719500
     10 C10          0.0170     1.7160    -1.6810 c3         1 ZOM      -0.015800
     11 C1B         -1.8090     0.3330     0.5170 ca         1 ZOM      -0.132600
     12 C2B         -2.8400     1.0460     1.1680 ca         1 ZOM      -0.063000
     13 C3B         -4.1330     1.0920     0.6170 ca         1 ZOM      -0.123000
     14 C4B         -4.4100     0.4130    -0.5790 ca         1 ZOM       0.125000
     15 C5B         -3.4010    -0.3200    -1.2220 ca         1 ZOM      -0.123000
     16 C6B         -2.1080    -0.3670    -0.6740 ca         1 ZOM      -0.063000
     17 OXT          5.3880    -0.6050     1.3770 o          1 ZOM      -0.719500
     18 H3           2.6300     0.7390    -2.3840 ha         1 ZOM       0.123000
     19 H7           4.1750    -2.0390    -0.3470 hc         1 ZOM       0.041200
     20 H7A          4.5280    -0.8840    -1.7110 hc         1 ZOM       0.041200
     21 H9           2.5550    -0.6600     2.5340 h1         1 ZOM       0.055700
     22 H9A          1.3100    -1.8550     2.0630 h1         1 ZOM       0.055700
     23 H9B          2.9980    -2.0920     1.5590 h1         1 ZOM       0.055700
     24 H10         -0.6430     1.2070    -2.3920 hc         1 ZOM       0.029033
     25 H10A        -0.6020     2.2820    -0.9760 hc         1 ZOM       0.029033
     26 H10B         0.6050     2.4460    -2.2490 hc         1 ZOM       0.029033
     27 H2B         -2.6360     1.5740     2.0980 ha         1 ZOM       0.133000
     28 H3B         -4.9180     1.6510     1.1180 ha         1 ZOM       0.122500
     29 H5B         -3.6220    -0.8550    -2.1420 ha         1 ZOM       0.122500
     30 H6B         -1.3410    -0.9560    -1.1740 ha         1 ZOM       0.133000
     31 C7           4.2370    -0.9900    -0.6600 c3         1 ZOM      -0.188100
     32 C6          -0.4310     0.2740     1.1380 c          1 ZOM       0.622300
     33 C9           2.2230    -1.3400     1.7410 c3         1 ZOM       0.062900
@<TRIPOS>BOND
     1     1    14 1   
     2     2     3 1   
     3     2     6 1   
     4     2    33 1   
     5     3     4 2   
     6     3    31 1   
     7     4     5 1   
     8     4    18 1   
     9     5     6 2   
    10     5    10 1   
    11     6    32 1   
    12     7    32 2   
    13     8     9 1   
    14     8    17 1   
    15     8    31 1   
    16    10    24 1   
    17    10    25 1   
    18    10    26 1   
    19    11    12 ar  
    20    11    16 ar  
    21    11    32 1   
    22    12    13 ar  
    23    12    27 1   
    24    13    14 ar  
    25    13    28 1   
    26    14    15 ar  
    27    15    16 ar  
    28    15    29 1   
    29    16    30 1   
    30    19    31 1   
    31    20    31 1   
    32    21    33 1   
    33    22    33 1   
    34    23    33 1   
@<TRIPOS>SUBSTRUCTURE
     1 ZOM         1 TEMP              0 ****  ****    0 ROOT
