@<TRIPOS>MOLECULE
ZOM
   33    34     1     0     0
SMALL
bcc


@<TRIPOS>ATOM
      1 CL          -5.9680     0.6950    -1.0710 cl         1 ZOM      -0.134400
      2 N1           1.9230    -0.5410     0.4710 na         1 ZOM       0.018900
      3 C2           2.8200    -0.3490    -0.5170 cc         1 ZOM       0.029400
      4 C3           2.2130     0.4080    -1.5060 cd         1 ZOM      -0.256000
      5 C4           0.8930     0.6700    -1.1180 cd         1 ZOM      -0.077300
      6 C5           0.7220     0.0630     0.1300 cc         1 ZOM      -0.271900
      7 O6          -0.2690     0.0880     2.2640 o          1 ZOM      -0.560100
      8 C8           5.1550    -0.2260     0.5300 c          1 ZOM       0.932600
      9 OH           4.7010     0.7060     1.2150 o          1 ZOM      -0.824800
     10 C10         -0.0580     1.5150    -1.9050 c3         1 ZOM      -0.015800
     11 C1B         -1.7570     0.3220     0.4710 ca         1 ZOM      -0.132600
     12 C2B         -2.6660     1.1690     1.1010 ca         1 ZOM      -0.081000
     13 C3B         -3.9580     1.3010     0.6220 ca         1 ZOM      -0.141000
     14 C4B         -4.3500     0.5480    -0.4760 ca         1 ZOM       0.033400
     15 C5B         -3.4720    -0.3230    -1.1010 ca         1 ZOM      -0.141000
     16 C6B         -2.1740    -0.4240    -0.6270 ca         1 ZOM      -0.081000
     17 OXT          6.3060    -0.7000     0.5640 o          1 ZOM      -0.824800
     18 H3           2.6880     0.7430    -2.4150 ha         1 ZOM       0.141000
     19 H7           4.2040    -1.9690    -0.3380 hc         1 ZOM       0.041200
     20 H7A          4.6270    -0.7480    -1.4980 hc         1 ZOM       0.041200
     21 H9           2.3560    -0.6660     2.5270 h1         1 ZOM       0.055700
     22 H9A          1.3380    -1.9660     1.8890 h1         1 ZOM       0.055700
     23 H9B          3.0530    -1.9350     1.5180 h1         1 ZOM       0.055700
     24 H10         -0.7230     0.9170    -2.5280 hc         1 ZOM       0.029033
     25 H10A        -0.6870     2.1400    -1.2730 hc         1 ZOM       0.029033
     26 H10B         0.5000     2.1740    -2.5700 hc         1 ZOM       0.029033
     27 H2B         -2.3620     1.7460     1.9650 ha         1 ZOM       0.151000
     28 H3B         -4.6530     1.9780     1.1020 ha         1 ZOM       0.140500
     29 H5B         -3.7920    -0.9140    -1.9480 ha         1 ZOM       0.140500
     30 H6B         -1.4870    -1.1060    -1.1130 ha         1 ZOM       0.151000
     31 C7           4.2020    -0.8860    -0.5010 c3         1 ZOM      -0.188100
     32 C6          -0.3920     0.1520     1.0470 c          1 ZOM       0.622300
     33 C9           2.1770    -1.3110     1.6700 c3         1 ZOM       0.033600
@<TRIPOS>BOND
     1     1    14 1   
     2     2     3 1   
     3     2     6 1   
     4     2    33 1   
     5     3     4 2   
     6     3    31 1   
     7     4     5 1   
     8     4    18 1   
     9     5     6 2   
    10     5    10 1   
    11     6    32 1   
    12     7    32 2   
    13     8     9 1   
    14     8    17 1   
    15     8    31 1   
    16    10    24 1   
    17    10    25 1   
    18    10    26 1   
    19    11    12 ar  
    20    11    16 ar  
    21    11    32 1   
    22    12    13 ar  
    23    12    27 1   
    24    13    14 ar  
    25    13    28 1   
    26    14    15 ar  
    27    15    16 ar  
    28    15    29 1   
    29    16    30 1   
    30    19    31 1   
    31    20    31 1   
    32    21    33 1   
    33    22    33 1   
    34    23    33 1   
@<TRIPOS>SUBSTRUCTURE
     1 ZOM         1 TEMP              0 ****  ****    0 ROOT
