@<TRIPOS>MOLECULE
ZON
   22    23     1     0     0
SMALL
No Charge or Current Charge


@<TRIPOS>ATOM
      1 NAA         55.0750   151.7590    24.6060 n8         1 ZON      -1.004100
      2 OAB         54.9170   153.3760    22.7290 o          1 ZON      -0.526500
      3 OAC         55.2630   154.1740    25.1250 o          1 ZON      -0.526500
      4 CAD         51.3580   156.0550    28.7040 ca         1 ZON      -0.058000
      5 CAE         51.6430   156.5780    27.4180 ca         1 ZON      -0.141000
      6 CAF         51.4760   154.6690    28.9510 ca         1 ZON      -0.121000
      7 CAG         52.0470   155.7230    26.3690 ca         1 ZON      -0.010000
      8 CAH         52.8940   153.2100    24.4160 c3         1 ZON      -0.374700
      9 NAI         52.4750   152.0980    26.5690 nc         1 ZON      -0.301700
     10 OAJ         52.0530   152.4920    27.9210 os         1 ZON      -0.125100
     11 CAK         52.5240   153.2270    25.8560 cd         1 ZON       0.401900
     12 CAL         51.8780   153.8490    27.8900 ca         1 ZON       0.084100
     13 CAM         52.1490   154.3540    26.6580 ca         1 ZON      -0.247900
     14 SAN         54.6420   153.2720    24.1600 s6         1 ZON       1.210100
     15 HNAA        56.0640   151.8790    24.8130 hn         1 ZON       0.488500
     16 HNAB        54.6510   151.6580    25.5250 hn         1 ZON       0.488500
     17 HAE         51.5510   157.6470    27.2360 ha         1 ZON       0.125000
     18 HAF         51.2630   154.2510    29.9310 ha         1 ZON       0.140000
     19 HAG         52.2700   156.1150    25.3780 ha         1 ZON       0.137000
     20 HAH         52.5290   152.3050    23.9200 h1         1 ZON       0.120200
     21 HAHA        52.4860   154.0920    23.9160 h1         1 ZON       0.120200
     22 HAD         51.0480   156.7230    29.5050 ha         1 ZON       0.122000
@<TRIPOS>BOND
     1     1    14 1   
     2     1    15 1   
     3     1    16 1   
     4     2    14 2   
     5     3    14 2   
     6     4     5 ar  
     7     4     6 ar  
     8     4    22 1   
     9     5     7 ar  
    10     5    17 1   
    11     6    12 ar  
    12     6    18 1   
    13     7    13 ar  
    14     7    19 1   
    15     8    11 1   
    16     8    14 1   
    17     8    20 1   
    18     8    21 1   
    19     9    10 1   
    20     9    11 2   
    21    10    12 1   
    22    11    13 1   
    23    12    13 ar  
@<TRIPOS>SUBSTRUCTURE
     1 ZON         1 TEMP              0 ****  ****    0 ROOT
