@<TRIPOS>MOLECULE
ZON
   22    23     1     0     0
SMALL
abcg2


@<TRIPOS>ATOM
      1 NAA         55.3640   152.2810    24.9620 n8         1 ZON      -1.004100
      2 OAB         54.7440   153.0890    22.7020 o          1 ZON      -0.526500
      3 OAC         54.8230   154.6720    24.6290 o          1 ZON      -0.526500
      4 CAD         51.6000   156.0100    28.7270 ca         1 ZON      -0.058000
      5 CAE         51.9190   156.5420    27.4630 ca         1 ZON      -0.141000
      6 CAF         51.5520   154.6430    28.9570 ca         1 ZON      -0.121000
      7 CAG         52.2020   155.7200    26.3880 ca         1 ZON      -0.010000
      8 CAH         52.7490   153.0510    24.3850 c3         1 ZON      -0.374700
      9 NAI         52.1950   152.0780    26.5250 nc         1 ZON      -0.301700
     10 OAJ         51.8560   152.4790    27.8300 os         1 ZON      -0.125100
     11 CAK         52.3680   153.1600    25.8170 cd         1 ZON       0.401900
     12 CAL         51.8380   153.8360    27.8640 ca         1 ZON       0.084100
     13 CAM         52.1570   154.3390    26.6040 ca         1 ZON      -0.247900
     14 SAN         54.5070   153.3690    24.0970 s6         1 ZON       1.210100
     15 HNAA        55.3040   152.4130    25.9660 hn         1 ZON       0.488500
     16 HNAB        55.2020   151.3190    24.6830 hn         1 ZON       0.488500
     17 HAE         51.9440   157.6170    27.3370 ha         1 ZON       0.125000
     18 HAF         51.3070   154.2310    29.9260 ha         1 ZON       0.140000
     19 HAG         52.4560   156.1240    25.4180 ha         1 ZON       0.137000
     20 HAH         52.5540   152.0530    23.9970 h1         1 ZON       0.120200
     21 HAHA        52.2300   153.7920    23.7750 h1         1 ZON       0.120200
     22 HAD         51.3880   156.6880    29.5440 ha         1 ZON       0.122000
@<TRIPOS>BOND
     1     1    14 1   
     2     1    15 1   
     3     1    16 1   
     4     2    14 2   
     5     3    14 2   
     6     4     5 ar  
     7     4     6 ar  
     8     4    22 1   
     9     5     7 ar  
    10     5    17 1   
    11     6    12 ar  
    12     6    18 1   
    13     7    13 ar  
    14     7    19 1   
    15     8    11 1   
    16     8    14 1   
    17     8    20 1   
    18     8    21 1   
    19     9    10 1   
    20     9    11 2   
    21    10    12 1   
    22    11    13 1   
    23    12    13 ar  
@<TRIPOS>SUBSTRUCTURE
     1 ZON         1 TEMP              0 ****  ****    0 ROOT
