@<TRIPOS>MOLECULE
ZOO
   50    52     1     0     0
SMALL
No Charge or Current Charge


@<TRIPOS>ATOM
      1 C1           0.5960     4.9310     0.0710 c3         1 ZOO       0.094300
      2 F1           5.3990    -3.7810    -0.2150 f          1 ZOO      -0.134500
      3 N1           0.5550     3.4700    -0.1590 n          1 ZOO      -0.382300
      4 O1           1.4260     2.8150     1.8930 o          1 ZOO      -0.500000
      5 C2           0.9900     2.5580     0.7760 c          1 ZOO       0.550000
      6 F2           5.2790    -3.3160    -2.3420 f          1 ZOO      -0.134500
      7 N2           0.1890     1.5490    -1.3030 n2         1 ZOO      -0.694900
      8 O2           5.7610    -1.5950    -0.8760 os         1 ZOO      -0.393100
      9 C3           0.7820     1.1870     0.0400 c5         1 ZOO       0.166800
     10 F3          -8.1850    -0.0460    -2.7950 f          1 ZOO      -0.270000
     11 N3          -0.3730     3.5610    -2.2920 nv         1 ZOO      -1.024200
     12 C4           0.1280     2.8160    -1.2890 c2         1 ZOO       0.672800
     13 F4          -2.6410    -1.9890     3.3660 f          1 ZOO      -0.169000
     14 C5           2.1170     0.4470    -0.1950 ca         1 ZOO      -0.059300
     15 C6           2.1060    -0.9290    -0.5150 ca         1 ZOO      -0.081000
     16 C7           3.3000    -1.6360    -0.7430 ca         1 ZOO      -0.108000
     17 C8           4.5420    -0.9710    -0.6650 ca         1 ZOO       0.089100
     18 C9           4.5630     0.3990    -0.3680 ca         1 ZOO      -0.108000
     19 C10          3.3690     1.1060    -0.1410 ca         1 ZOO      -0.081000
     20 C11          5.9150    -2.9970    -1.1910 c3         1 ZOO       0.386300
     21 C12         -0.1680     0.3330     0.9100 ca         1 ZOO      -0.099300
     22 C13          0.3020    -0.1950     2.1350 ca         1 ZOO      -0.047000
     23 C14         -0.5330    -0.9740     2.9520 ca         1 ZOO      -0.159000
     24 C15         -1.8530    -1.2360     2.5620 ca         1 ZOO       0.198000
     25 C16         -2.3470    -0.7180     1.3480 ca         1 ZOO      -0.018000
     26 C17         -1.5050     0.0620     0.5320 ca         1 ZOO      -0.043000
     27 C18         -3.6980    -0.9720     0.9290 cg         1 ZOO      -0.113000
     28 C19         -4.8380    -1.1790     0.5650 c1         1 ZOO      -0.113100
     29 C20         -6.2090    -1.4000     0.0880 c3         1 ZOO       0.010700
     30 C21         -6.5320    -0.5740    -1.1770 c3         1 ZOO      -0.111400
     31 C22         -7.9690    -0.7970    -1.6870 c3         1 ZOO       0.183600
     32 H1           1.0070     5.4380    -0.8110 h1         1 ZOO       0.052033
     33 H1A         -0.4180     5.3040     0.2650 h1         1 ZOO       0.052033
     34 H1B          1.2320     5.1700     0.9340 h1         1 ZOO       0.052033
     35 HN3         -0.8950     4.3680    -1.9750 hn         1 ZOO       0.489500
     36 HN3A        -0.8590     2.9980    -2.9790 hn         1 ZOO       0.489500
     37 H6           1.1590    -1.4590    -0.5930 ha         1 ZOO       0.128500
     38 H7           3.2340    -2.6930    -0.9790 ha         1 ZOO       0.131000
     39 H9           5.5150     0.9220    -0.3170 ha         1 ZOO       0.131000
     40 H10          3.4350     2.1690     0.0720 ha         1 ZOO       0.128500
     41 H11          6.9760    -3.2420    -1.3040 h3         1 ZOO       0.102700
     42 H13          1.3240    -0.0020     2.4560 ha         1 ZOO       0.135000
     43 H14         -0.1580    -1.3750     3.8900 ha         1 ZOO       0.137000
     44 H17         -1.9050     0.4530    -0.4010 ha         1 ZOO       0.136000
     45 H20         -6.3440    -2.4680    -0.1220 hc         1 ZOO       0.060200
     46 H20A        -6.9100    -1.1370     0.8910 hc         1 ZOO       0.060200
     47 H21         -6.3930     0.4930    -0.9630 hc         1 ZOO       0.062200
     48 H21A        -5.8270    -0.8380    -1.9750 hc         1 ZOO       0.062200
     49 H22         -8.6960    -0.5060    -0.9190 h1         1 ZOO       0.042200
     50 H22A        -8.1230    -1.8530    -1.9440 h1         1 ZOO       0.042200
@<TRIPOS>BOND
     1     1     3 1   
     2     1    32 1   
     3     1    33 1   
     4     1    34 1   
     5     2    20 1   
     6     3     5 1   
     7     3    12 1   
     8     4     5 2   
     9     5     9 1   
    10     6    20 1   
    11     7     9 1   
    12     7    12 2   
    13     8    17 1   
    14     8    20 1   
    15     9    14 1   
    16     9    21 1   
    17    10    31 1   
    18    11    12 1   
    19    11    35 1   
    20    11    36 1   
    21    13    24 1   
    22    14    15 ar  
    23    14    19 ar  
    24    15    16 ar  
    25    15    37 1   
    26    16    17 ar  
    27    16    38 1   
    28    17    18 ar  
    29    18    19 ar  
    30    18    39 1   
    31    19    40 1   
    32    20    41 1   
    33    21    22 ar  
    34    21    26 ar  
    35    22    23 ar  
    36    22    42 1   
    37    23    24 ar  
    38    23    43 1   
    39    24    25 ar  
    40    25    26 ar  
    41    25    27 1   
    42    26    44 1   
    43    27    28 3   
    44    28    29 1   
    45    29    30 1   
    46    29    45 1   
    47    29    46 1   
    48    30    31 1   
    49    30    47 1   
    50    30    48 1   
    51    31    49 1   
    52    31    50 1   
@<TRIPOS>SUBSTRUCTURE
     1 ZOO         1 TEMP              0 ****  ****    0 ROOT
