@<TRIPOS>MOLECULE
ZOO
   50    52     1     0     0
SMALL
abcg2


@<TRIPOS>ATOM
      1 C1           0.5030     4.7780     0.1750 c3         1 ZOO       0.094300
      2 F1           6.4490    -1.9780     0.5940 f          1 ZOO      -0.134500
      3 N1           0.5280     3.3640    -0.1140 n          1 ZOO      -0.382300
      4 O1           1.4490     2.5520     1.8260 o          1 ZOO      -0.500000
      5 C2           0.9960     2.3940     0.7170 c          1 ZOO       0.550000
      6 F2           5.2010    -3.5470    -0.1980 f          1 ZOO      -0.134500
      7 N2           0.1860     1.4800    -1.3100 n2         1 ZOO      -0.694900
      8 O2           5.5480    -1.7170    -1.4360 os         1 ZOO      -0.393100
      9 C3           0.7930     1.0810    -0.0580 c5         1 ZOO       0.166800
     10 F3          -8.4480     0.3590    -2.3620 f          1 ZOO      -0.270000
     11 N3          -0.3690     3.5320    -2.2860 nv         1 ZOO      -1.024200
     12 C4           0.0780     2.7580    -1.2830 c2         1 ZOO       0.672800
     13 F4          -2.6000    -2.1190     3.0860 f          1 ZOO      -0.169000
     14 C5           2.1000     0.3580    -0.3510 ca         1 ZOO      -0.059300
     15 C6           2.0200    -0.8710    -1.0050 ca         1 ZOO      -0.081000
     16 C7           3.1590    -1.5750    -1.3510 ca         1 ZOO      -0.108000
     17 C8           4.4040    -1.0430    -1.0450 ca         1 ZOO       0.089100
     18 C9           4.5090     0.1790    -0.4070 ca         1 ZOO      -0.108000
     19 C10          3.3560     0.8760    -0.0640 ca         1 ZOO      -0.081000
     20 C11          6.0920    -2.5940    -0.5590 c3         1 ZOO       0.386300
     21 C12         -0.1280     0.2020     0.7770 ca         1 ZOO      -0.099300
     22 C13          0.3490    -0.4000     1.9410 ca         1 ZOO      -0.047000
     23 C14         -0.4820    -1.1800     2.7260 ca         1 ZOO      -0.159000
     24 C15         -1.7930    -1.3610     2.3360 ca         1 ZOO       0.198000
     25 C16         -2.3070    -0.7850     1.1810 ca         1 ZOO      -0.018000
     26 C17         -1.4480     0.0030     0.4070 ca         1 ZOO      -0.043000
     27 C18         -3.6590    -1.0020     0.7970 cg         1 ZOO      -0.113000
     28 C19         -4.8010    -1.1810     0.4550 c1         1 ZOO      -0.113100
     29 C20         -6.1730    -1.3850     0.0170 c3         1 ZOO       0.010700
     30 C21         -6.6260    -0.3250    -0.9920 c3         1 ZOO      -0.111400
     31 C22         -8.0360    -0.6120    -1.4520 c3         1 ZOO       0.183600
     32 H1           1.1100     5.3310    -0.5420 h1         1 ZOO       0.052033
     33 H1A         -0.5160     5.1620     0.1570 h1         1 ZOO       0.052033
     34 H1B          0.9100     4.9370     1.1690 h1         1 ZOO       0.052033
     35 HN3         -0.7310     4.4490    -2.0840 hn         1 ZOO       0.489500
     36 HN3A        -0.8330     3.0570    -3.0430 hn         1 ZOO       0.489500
     37 H6           1.0510    -1.2890    -1.2490 ha         1 ZOO       0.128500
     38 H7           3.0780    -2.5210    -1.8690 ha         1 ZOO       0.131000
     39 H9           5.4800     0.6030    -0.1890 ha         1 ZOO       0.131000
     40 H10          3.4720     1.8260     0.4390 ha         1 ZOO       0.128500
     41 H11          6.9630    -3.0550    -1.0170 h3         1 ZOO       0.102700
     42 H13          1.3800    -0.2700     2.2430 ha         1 ZOO       0.135000
     43 H14         -0.1140    -1.6480     3.6300 ha         1 ZOO       0.137000
     44 H17         -1.8270     0.4560    -0.4980 ha         1 ZOO       0.136000
     45 H20         -6.2610    -2.3820    -0.4240 hc         1 ZOO       0.060200
     46 H20A        -6.8330    -1.3780     0.8890 hc         1 ZOO       0.060200
     47 H21         -6.5790     0.6630    -0.5290 hc         1 ZOO       0.062200
     48 H21A        -5.9490    -0.3220    -1.8480 hc         1 ZOO       0.062200
     49 H22         -8.7330    -0.6040    -0.6120 h1         1 ZOO       0.042200
     50 H22A        -8.0970    -1.5840    -1.9450 h1         1 ZOO       0.042200
@<TRIPOS>BOND
     1     1     3 1   
     2     1    32 1   
     3     1    33 1   
     4     1    34 1   
     5     2    20 1   
     6     3     5 1   
     7     3    12 1   
     8     4     5 2   
     9     5     9 1   
    10     6    20 1   
    11     7     9 1   
    12     7    12 2   
    13     8    17 1   
    14     8    20 1   
    15     9    14 1   
    16     9    21 1   
    17    10    31 1   
    18    11    12 1   
    19    11    35 1   
    20    11    36 1   
    21    13    24 1   
    22    14    15 ar  
    23    14    19 ar  
    24    15    16 ar  
    25    15    37 1   
    26    16    17 ar  
    27    16    38 1   
    28    17    18 ar  
    29    18    19 ar  
    30    18    39 1   
    31    19    40 1   
    32    20    41 1   
    33    21    22 ar  
    34    21    26 ar  
    35    22    23 ar  
    36    22    42 1   
    37    23    24 ar  
    38    23    43 1   
    39    24    25 ar  
    40    25    26 ar  
    41    25    27 1   
    42    26    44 1   
    43    27    28 3   
    44    28    29 1   
    45    29    30 1   
    46    29    45 1   
    47    29    46 1   
    48    30    31 1   
    49    30    47 1   
    50    30    48 1   
    51    31    49 1   
    52    31    50 1   
@<TRIPOS>SUBSTRUCTURE
     1 ZOO         1 TEMP              0 ****  ****    0 ROOT
