@<TRIPOS>MOLECULE
ZOP
   71    75     1     0     0
SMALL
bcc


@<TRIPOS>ATOM
      1 CAJ         -8.3100    -0.6890    -0.7540 c6         1 ZOP       0.170300
      2 CAL         -8.9410     0.0160    -1.9450 c6         1 ZOP      -0.075400
      3 CAW         -9.2050     1.4820    -1.6260 c6         1 ZOP      -0.075400
      4 CAV         -7.9260     2.1430    -1.1260 c6         1 ZOP      -0.075400
      5 CAK         -7.3220     1.3550     0.0260 c6         1 ZOP       0.170300
      6 NAI         -7.0830    -0.0270    -0.3510 n3         1 ZOP      -0.728600
      7 CAH         -6.3750    -0.7530     0.6800 c3         1 ZOP       0.219100
      8 CAG         -4.9380    -0.3150     0.7990 ca         1 ZOP      -0.090300
      9 CAS         -4.3490    -0.0920     2.0370 ca         1 ZOP      -0.100500
     10 CAR         -3.0100     0.2610     2.1400 ca         1 ZOP      -0.144000
     11 CAF         -4.1580    -0.1450    -0.3430 ca         1 ZOP      -0.100500
     12 CAE         -2.8270     0.2220    -0.2550 ca         1 ZOP      -0.144000
     13 CAQ         -2.2390     0.4090     0.9940 ca         1 ZOP       0.132600
     14 NAP         -0.8930     0.8030     1.1360 nu         1 ZOP      -0.622400
     15 CAO          0.1750     0.3110     0.4960 ce         1 ZOP       0.333800
     16 CAN         -0.0040    -0.9110    -0.3190 ca         1 ZOP      -0.100800
     17 CAM         -0.3710    -2.1060     0.2920 ca         1 ZOP      -0.096500
     18 CAC         -0.5230    -3.2540    -0.4720 ca         1 ZOP      -0.132500
     19 CAA         -0.3280    -3.2070    -1.8460 ca         1 ZOP      -0.112000
     20 CAB          0.0280    -2.0120    -2.4570 ca         1 ZOP      -0.132500
     21 CAD          0.1960    -0.8660    -1.6950 ca         1 ZOP      -0.096500
     22 CBD          1.4150     0.9030     0.6210 cd         1 ZOP      -0.317400
     23 CBC          2.7190     0.4730     0.1510 ca         1 ZOP      -0.026800
     24 CBB          3.2160    -0.6440    -0.5120 ca         1 ZOP      -0.108000
     25 CBJ          1.6170     2.1660     1.3270 c          1 ZOP       0.721700
     26 OBK          0.7900     2.8560     1.9240 o          1 ZOP      -0.675500
     27 NBI          2.9460     2.4660     1.2110 ns         1 ZOP      -0.456100
     28 CBH          3.6310     1.4750     0.5370 ca         1 ZOP       0.029600
     29 CBG          4.9830     1.4000     0.2700 ca         1 ZOP      -0.136000
     30 CBF          5.4580     0.2780    -0.4090 ca         1 ZOP      -0.128600
     31 CBA          4.5720    -0.7230    -0.8030 ca         1 ZOP      -0.108000
     32 OBE          7.1470    -0.0380    -2.0130 o          1 ZOP      -0.600100
     33 CAX          9.6420     1.8520    -0.6730 c3         1 ZOP      -0.112100
     34 CAT          9.2390     0.4250    -0.3330 c3         1 ZOP       0.098000
     35 C21          6.8880     0.1750    -0.8330 c          1 ZOP       0.684700
     36 N25          7.8510     0.3270     0.0990 n          1 ZOP      -0.478800
     37 C29          7.6210     0.4360     1.5260 c3         1 ZOP       0.095300
     38 HAJ1        -9.0440    -0.7280     0.0720 h1         1 ZOP       0.030700
     39 HAJ2        -8.0760    -1.7250    -1.0140 h1         1 ZOP       0.030700
     40 HAL1        -8.2630    -0.0580    -2.8010 hc         1 ZOP       0.046450
     41 HAL2        -9.8660    -0.4960    -2.2210 hc         1 ZOP       0.046450
     42 HAW1        -9.5920     2.0060    -2.5020 hc         1 ZOP       0.039200
     43 HAW2        -9.9770     1.5520    -0.8510 hc         1 ZOP       0.039200
     44 HAV1        -7.1970     2.1960    -1.9400 hc         1 ZOP       0.046450
     45 HAV2        -8.1190     3.1670    -0.8000 hc         1 ZOP       0.046450
     46 HAK1        -6.3750     1.8080     0.3260 h1         1 ZOP       0.030700
     47 HAK2        -7.9950     1.4120     0.9030 h1         1 ZOP       0.030700
     48 HAH1        -6.8650    -0.6770     1.6660 h1         1 ZOP       0.037700
     49 HAH2        -6.3940    -1.8150     0.4170 h1         1 ZOP       0.037700
     50 HAS         -4.9380    -0.2000     2.9400 ha         1 ZOP       0.142500
     51 HAF         -4.6110    -0.2790    -1.3170 ha         1 ZOP       0.142500
     52 HAR         -2.5650     0.4200     3.1150 ha         1 ZOP       0.142500
     53 HAE         -2.2540     0.3750    -1.1590 ha         1 ZOP       0.142500
     54 HAM         -0.5300    -2.1430     1.3620 ha         1 ZOP       0.144000
     55 HAD          0.4810     0.0660    -2.1670 ha         1 ZOP       0.144000
     56 HAC         -0.7990    -4.1840     0.0060 ha         1 ZOP       0.137000
     57 HAA         -0.4540    -4.1020    -2.4410 ha         1 ZOP       0.134000
     58 HAB          0.1760    -1.9710    -3.5280 ha         1 ZOP       0.137000
     59 HBB          2.5680    -1.4540    -0.8100 ha         1 ZOP       0.141000
     60 HBA          4.9450    -1.5910    -1.3320 ha         1 ZOP       0.143000
     61 HBI          3.3670     3.2880     1.6150 hn         1 ZOP       0.336500
     62 HBG          5.6480     2.1970     0.5770 ha         1 ZOP       0.137000
     63 HAX1        10.6920     1.8880    -0.9630 hc         1 ZOP       0.040367
     64 HAX2         9.0500     2.2380    -1.5030 hc         1 ZOP       0.040367
     65 HAX3         9.5090     2.5190     0.1800 hc         1 ZOP       0.040367
     66 HAT1         9.3970    -0.2260    -1.1900 h1         1 ZOP       0.054200
     67 HAT2         9.8630     0.0420     0.4750 h1         1 ZOP       0.054200
     68 H291         7.7470     1.4600     1.8870 h1         1 ZOP       0.038700
     69 H292         6.6250     0.0980     1.7930 h1         1 ZOP       0.038700
     70 H293         8.3370    -0.1950     2.0520 h1         1 ZOP       0.038700
     71 HAP         -0.7080     1.5870     1.7560 hn         1 ZOP       0.486800
@<TRIPOS>BOND
     1     1     2 1   
     2     1     6 1   
     3     1    38 1   
     4     1    39 1   
     5     2     3 1   
     6     2    40 1   
     7     2    41 1   
     8     3     4 1   
     9     3    42 1   
    10     3    43 1   
    11     4     5 1   
    12     4    44 1   
    13     4    45 1   
    14     5     6 1   
    15     5    46 1   
    16     5    47 1   
    17     6     7 1   
    18     7     8 1   
    19     7    48 1   
    20     7    49 1   
    21     8     9 ar  
    22     8    11 ar  
    23     9    10 ar  
    24     9    50 1   
    25    10    13 ar  
    26    10    52 1   
    27    11    12 ar  
    28    11    51 1   
    29    12    13 ar  
    30    12    53 1   
    31    13    14 1   
    32    14    15 1   
    33    14    71 1   
    34    15    16 1   
    35    15    22 2   
    36    16    17 ar  
    37    16    21 ar  
    38    17    18 ar  
    39    17    54 1   
    40    18    19 ar  
    41    18    56 1   
    42    19    20 ar  
    43    19    57 1   
    44    20    21 ar  
    45    20    58 1   
    46    21    55 1   
    47    22    23 1   
    48    22    25 1   
    49    23    24 ar  
    50    23    28 ar  
    51    24    31 ar  
    52    24    59 1   
    53    25    26 2   
    54    25    27 1   
    55    27    28 1   
    56    27    61 1   
    57    28    29 ar  
    58    29    30 ar  
    59    29    62 1   
    60    30    31 ar  
    61    30    35 1   
    62    31    60 1   
    63    32    35 2   
    64    33    34 1   
    65    33    63 1   
    66    33    64 1   
    67    33    65 1   
    68    34    36 1   
    69    34    66 1   
    70    34    67 1   
    71    35    36 1   
    72    36    37 1   
    73    37    68 1   
    74    37    69 1   
    75    37    70 1   
@<TRIPOS>SUBSTRUCTURE
     1 ZOP         1 TEMP              0 ****  ****    0 ROOT
