@<TRIPOS>MOLECULE
ZOP
   71    75     1     0     0
SMALL
No Charge or Current Charge


@<TRIPOS>ATOM
      1 CAJ         -8.3530     0.4230    -1.0880 c6         1 ZOP       0.170300
      2 CAL         -8.6910     1.5110    -2.1370 c6         1 ZOP      -0.075400
      3 CAW         -8.4030     2.9250    -1.5820 c6         1 ZOP      -0.075400
      4 CAV         -6.9490     3.0040    -1.0630 c6         1 ZOP      -0.075400
      5 CAK         -6.6580     1.8730    -0.0450 c6         1 ZOP       0.170300
      6 NAI         -6.9420     0.5270    -0.6220 n3         1 ZOP      -0.728600
      7 CAH         -6.5770    -0.5810     0.2930 c3         1 ZOP       0.219100
      8 CAG         -5.0890    -0.6210     0.6340 ca         1 ZOP      -0.090300
      9 CAS         -4.6490    -0.3760     1.9480 ca         1 ZOP      -0.082500
     10 CAR         -3.2760    -0.4110     2.2520 ca         1 ZOP      -0.126000
     11 CAF         -4.1410    -0.8980    -0.3680 ca         1 ZOP      -0.082500
     12 CAE         -2.7700    -0.9320    -0.0590 ca         1 ZOP      -0.126000
     13 CAQ         -2.3260    -0.6970     1.2560 ca         1 ZOP       0.271000
     14 NAP         -0.9750    -0.7130     1.6140 nu         1 ZOP      -0.816000
     15 CAO          0.1820    -0.9350     0.8570 ce         1 ZOP       0.333800
     16 CAN          0.1810    -2.2050     0.0740 ca         1 ZOP      -0.100800
     17 CAM          0.0220    -3.4440     0.7270 ca         1 ZOP      -0.078500
     18 CAC         -0.0010    -4.6390    -0.0120 ca         1 ZOP      -0.114500
     19 CAA          0.1280    -4.6050    -1.4110 ca         1 ZOP      -0.094000
     20 CAB          0.2760    -3.3730    -2.0710 ca         1 ZOP      -0.114500
     21 CAD          0.2990    -2.1770    -1.3320 ca         1 ZOP      -0.078500
     22 CBD          1.2170    -0.0330     0.9560 cd         1 ZOP      -0.317400
     23 CBC          2.5660    -0.0950     0.3390 ca         1 ZOP      -0.026800
     24 CBB          3.2130    -1.0830    -0.4210 ca         1 ZOP      -0.090000
     25 CBJ          1.1940     1.2320     1.7430 c          1 ZOP       0.579200
     26 OBK          0.3140     1.6750     2.4660 o          1 ZOP      -0.600000
     27 NBI          2.4060     1.8060     1.4940 ns         1 ZOP      -0.389100
     28 CBH          3.2480     1.0590     0.6820 ca         1 ZOP       0.029600
     29 CBG          4.5560     1.3280     0.2740 ca         1 ZOP      -0.118000
     30 CBF          5.2260     0.3520    -0.5090 ca         1 ZOP      -0.128600
     31 CBA          4.5350    -0.8410    -0.8560 ca         1 ZOP      -0.090000
     32 OBE          6.9530     0.1530    -2.1320 o          1 ZOP      -0.600100
     33 CAX          8.8140     3.2460    -1.2210 c3         1 ZOP      -0.112100
     34 CAT          8.8470     1.7640    -0.8120 c3         1 ZOP       0.098000
     35 C21          6.6400     0.5630    -1.0200 c          1 ZOP       0.617700
     36 N25          7.5550     1.3140    -0.2370 n          1 ZOP      -0.411800
     37 C29          7.4640     1.3200     1.2440 c3         1 ZOP       0.095300
     38 HAJ1        -9.0420     0.5200    -0.2360 h1         1 ZOP       0.030700
     39 HAJ2        -8.5330    -0.5650    -1.5380 h1         1 ZOP       0.030700
     40 HAL1        -8.0990     1.3400    -3.0460 hc         1 ZOP       0.046450
     41 HAL2        -9.7470     1.4300    -2.4300 hc         1 ZOP       0.046450
     42 HAW1        -8.5680     3.6800    -2.3630 hc         1 ZOP       0.039200
     43 HAW2        -9.1020     3.1530    -0.7660 hc         1 ZOP       0.039200
     44 HAV1        -6.2480     2.9260    -1.9050 hc         1 ZOP       0.046450
     45 HAV2        -6.7690     3.9810    -0.5940 hc         1 ZOP       0.046450
     46 HAK1        -5.6040     1.9490     0.2600 h1         1 ZOP       0.030700
     47 HAK2        -7.2670     2.0360     0.8560 h1         1 ZOP       0.030700
     48 HAH1        -7.1600    -0.5090     1.2210 h1         1 ZOP       0.037700
     49 HAH2        -6.8380    -1.5430    -0.1700 h1         1 ZOP       0.037700
     50 HAS         -5.3680    -0.1550     2.7340 ha         1 ZOP       0.124500
     51 HAF         -4.4690    -1.0760    -1.3900 ha         1 ZOP       0.124500
     52 HAR         -2.9530    -0.2210     3.2720 ha         1 ZOP       0.124500
     53 HAE         -2.0630    -1.1280    -0.8560 ha         1 ZOP       0.124500
     54 HAM         -0.0840    -3.4760     1.8100 ha         1 ZOP       0.126000
     55 HAD          0.4100    -1.2260    -1.8480 ha         1 ZOP       0.126000
     56 HAC         -0.1210    -5.5920     0.4990 ha         1 ZOP       0.119000
     57 HAA          0.1090    -5.5300    -1.9830 ha         1 ZOP       0.116000
     58 HAB          0.3710    -3.3440    -3.1540 ha         1 ZOP       0.119000
     59 HBB          2.7380    -2.0260    -0.6640 ha         1 ZOP       0.123000
     60 HBA          5.0370    -1.5990    -1.4530 ha         1 ZOP       0.125000
     61 HBI          2.6820     2.6800     1.9230 hn         1 ZOP       0.336500
     62 HBG          5.0280     2.2690     0.5430 ha         1 ZOP       0.119000
     63 HAX1         9.7830     3.5490    -1.6340 hc         1 ZOP       0.040367
     64 HAX2         8.0440     3.4180    -1.9830 hc         1 ZOP       0.040367
     65 HAX3         8.5940     3.8810    -0.3550 hc         1 ZOP       0.040367
     66 HAT1         9.1140     1.1570    -1.6860 h1         1 ZOP       0.054200
     67 HAT2         9.6470     1.6210    -0.0740 h1         1 ZOP       0.054200
     68 H291         7.0750     2.2870     1.5870 h1         1 ZOP       0.038700
     69 H292         6.8080     0.5150     1.5970 h1         1 ZOP       0.038700
     70 H293         8.4560     1.1650     1.6870 h1         1 ZOP       0.038700
     71 HAP         -0.7820    -0.0590     2.3780 hn         1 ZOP       0.542000
@<TRIPOS>BOND
     1     1     2 1   
     2     1     6 1   
     3     1    38 1   
     4     1    39 1   
     5     2     3 1   
     6     2    40 1   
     7     2    41 1   
     8     3     4 1   
     9     3    42 1   
    10     3    43 1   
    11     4     5 1   
    12     4    44 1   
    13     4    45 1   
    14     5     6 1   
    15     5    46 1   
    16     5    47 1   
    17     6     7 1   
    18     7     8 1   
    19     7    48 1   
    20     7    49 1   
    21     8     9 ar  
    22     8    11 ar  
    23     9    10 ar  
    24     9    50 1   
    25    10    13 ar  
    26    10    52 1   
    27    11    12 ar  
    28    11    51 1   
    29    12    13 ar  
    30    12    53 1   
    31    13    14 1   
    32    14    15 1   
    33    14    71 1   
    34    15    16 1   
    35    15    22 2   
    36    16    17 ar  
    37    16    21 ar  
    38    17    18 ar  
    39    17    54 1   
    40    18    19 ar  
    41    18    56 1   
    42    19    20 ar  
    43    19    57 1   
    44    20    21 ar  
    45    20    58 1   
    46    21    55 1   
    47    22    23 1   
    48    22    25 1   
    49    23    24 ar  
    50    23    28 ar  
    51    24    31 ar  
    52    24    59 1   
    53    25    26 2   
    54    25    27 1   
    55    27    28 1   
    56    27    61 1   
    57    28    29 ar  
    58    29    30 ar  
    59    29    62 1   
    60    30    31 ar  
    61    30    35 1   
    62    31    60 1   
    63    32    35 2   
    64    33    34 1   
    65    33    63 1   
    66    33    64 1   
    67    33    65 1   
    68    34    36 1   
    69    34    66 1   
    70    34    67 1   
    71    35    36 1   
    72    36    37 1   
    73    37    68 1   
    74    37    69 1   
    75    37    70 1   
@<TRIPOS>SUBSTRUCTURE
     1 ZOP         1 TEMP              0 ****  ****    0 ROOT
