@<TRIPOS>MOLECULE
ZOQ
   47    50     1     0     0
SMALL
abcg2


@<TRIPOS>ATOM
      1 C1          22.3780   -14.1290    52.8150 ca         1 ZOQ      -0.142200
      2 C11         22.2900   -12.8960    49.2960 ca         1 ZOQ      -0.014800
      3 C12         22.1690   -11.5830    48.8080 ca         1 ZOQ      -0.068000
      4 C13         22.1220   -11.3170    47.4490 ca         1 ZOQ      -0.127000
      5 C14         22.1750   -12.3510    46.5200 ca         1 ZOQ      -0.022000
      6 C15         22.2730   -13.6530    46.9960 ca         1 ZOQ      -0.304500
      7 C16         22.3420   -13.9310    48.3570 ca         1 ZOQ      -0.017000
      8 C2          22.2510   -15.1270    53.7700 ca         1 ZOQ       0.369900
      9 C21         24.8240   -14.3490    45.0510 c3         1 ZOQ       0.171600
     10 C22         24.6370   -16.0030    46.8550 c3         1 ZOQ       0.171600
     11 C23         21.2570   -18.6890    50.7400 c          1 ZOQ       0.635100
     12 C24         20.9910   -20.1410    50.9300 cx         1 ZOQ      -0.249700
     13 C26         20.1300   -20.8470    49.9050 cx         1 ZOQ      -0.093900
     14 C27         21.5970   -21.1040    49.9290 cx         1 ZOQ      -0.093900
     15 C4          21.7230   -16.6470    52.1160 ca         1 ZOQ       0.446900
     16 C5          21.8050   -15.7120    51.0910 ca         1 ZOQ      -0.137000
     17 C6          22.1620   -14.4030    51.4400 ca         1 ZOQ      -0.023800
     18 C7          22.3690   -13.1630    50.7310 cc         1 ZOQ      -0.105400
     19 C8          22.6920   -12.2260    51.6990 cd         1 ZOQ      -0.124100
     20 N10         21.4060   -18.0000    51.9070 ns         1 ZOQ      -0.318900
     21 N18         23.9900   -15.3660    45.7010 n3         1 ZOQ      -0.719500
     22 N3          21.9360   -16.3670    53.4190 nb         1 ZOQ      -0.712000
     23 N9          22.6950   -12.7960    52.9350 na         1 ZOQ      -0.212700
     24 O19         21.7520   -16.1530    46.4510 o          1 ZOQ      -0.536000
     25 O20         21.9360   -14.5390    44.5640 o          1 ZOQ      -0.536000
     26 O25         21.3360   -18.1720    49.6270 o          1 ZOQ      -0.577100
     27 S17         22.3900   -15.0030    45.8540 sy         1 ZOQ       1.169600
     28 H33         22.1010   -10.7580    49.5050 ha         1 ZOQ       0.108000
     29 H34         22.0300   -10.2940    47.1060 ha         1 ZOQ       0.116000
     30 H35         22.1240   -12.1560    45.4590 ha         1 ZOQ       0.137000
     31 H36         22.4450   -14.9540    48.6770 ha         1 ZOQ       0.138000
     32 H28         22.4070   -14.9270    54.8240 h4         1 ZOQ       0.020100
     33 H37         25.7520   -14.8300    44.7440 h1         1 ZOQ       0.053867
     34 H38         24.3200   -13.9610    44.1710 h1         1 ZOQ       0.053867
     35 H39         25.0620   -13.5260    45.7330 h1         1 ZOQ       0.053867
     36 H42         23.9840   -16.7610    47.2770 h1         1 ZOQ       0.053867
     37 H40         25.5500   -16.4800    46.4990 h1         1 ZOQ       0.053867
     38 H41         24.9000   -15.2710    47.6260 h1         1 ZOQ       0.053867
     39 H43         20.9150   -20.4840    51.9530 hc         1 ZOQ       0.085700
     40 H45         19.7410   -20.2340    49.1030 hc         1 ZOQ       0.083950
     41 H44         19.4620   -21.6100    50.2790 hc         1 ZOQ       0.083950
     42 H47         21.9540   -22.0470    50.3200 hc         1 ZOQ       0.083950
     43 H46         22.1970   -20.6640    49.1440 hc         1 ZOQ       0.083950
     44 H29         21.5910   -16.0210    50.0850 ha         1 ZOQ       0.168000
     45 H30         22.9400   -11.1840    51.5840 h4         1 ZOQ       0.216000
     46 H32         21.3500   -18.5300    52.7640 hn         1 ZOQ       0.163000
     47 H31         22.9220   -12.3190    53.7920 hn         1 ZOQ       0.357000
@<TRIPOS>BOND
     1     1     8 ar  
     2     1    17 ar  
     3     1    23 1   
     4     2     3 ar  
     5     2     7 ar  
     6     2    18 1   
     7     3     4 ar  
     8     3    28 1   
     9     4     5 ar  
    10     4    29 1   
    11     5     6 ar  
    12     5    30 1   
    13     6     7 ar  
    14     6    27 1   
    15     7    31 1   
    16     8    22 ar  
    17     8    32 1   
    18     9    21 1   
    19     9    33 1   
    20     9    34 1   
    21     9    35 1   
    22    10    21 1   
    23    10    36 1   
    24    10    37 1   
    25    10    38 1   
    26    11    12 1   
    27    11    20 1   
    28    11    26 2   
    29    12    13 1   
    30    12    14 1   
    31    12    39 1   
    32    13    14 1   
    33    13    40 1   
    34    13    41 1   
    35    14    42 1   
    36    14    43 1   
    37    15    16 ar  
    38    15    20 1   
    39    15    22 ar  
    40    16    17 ar  
    41    16    44 1   
    42    17    18 1   
    43    18    19 2   
    44    19    23 1   
    45    19    45 1   
    46    20    46 1   
    47    21    27 1   
    48    23    47 1   
    49    24    27 2   
    50    25    27 2   
@<TRIPOS>SUBSTRUCTURE
     1 ZOQ         1 TEMP              0 ****  ****    0 ROOT
