@<TRIPOS>MOLECULE
ZOQ
   47    50     1     0     0
SMALL
No Charge or Current Charge


@<TRIPOS>ATOM
      1 C1          22.4350   -14.1510    52.7370 ca         1 ZOQ      -0.142200
      2 C11         22.2100   -13.0400    49.2380 ca         1 ZOQ      -0.014800
      3 C12         21.7380   -11.8060    48.7460 ca         1 ZOQ      -0.068000
      4 C13         21.6250   -11.5880    47.3630 ca         1 ZOQ      -0.127000
      5 C14         21.9850   -12.5980    46.4550 ca         1 ZOQ      -0.022000
      6 C15         22.4620   -13.8340    46.9350 ca         1 ZOQ      -0.304500
      7 C16         22.5750   -14.0490    48.3260 ca         1 ZOQ      -0.017000
      8 C2          22.3030   -15.1260    53.7420 ca         1 ZOQ       0.369900
      9 C21         25.3810   -14.0770    46.2220 c3         1 ZOQ       0.171600
     10 C22         25.0780   -15.4710    44.2130 c3         1 ZOQ       0.171600
     11 C23         20.4090   -18.6090    51.0150 c          1 ZOQ       0.635100
     12 C24         20.0710   -20.0490    51.3160 cx         1 ZOQ      -0.249700
     13 C26         20.4460   -21.1170    50.3060 cx         1 ZOQ      -0.093900
     14 C27         21.2000   -21.0190    51.6110 cx         1 ZOQ      -0.093900
     15 C4          21.4830   -16.6420    52.1780 ca         1 ZOQ       0.446900
     16 C5          21.5920   -15.7100    51.1200 ca         1 ZOQ      -0.137000
     17 C6          22.0960   -14.4470    51.4500 ca         1 ZOQ      -0.023800
     18 C7          22.3310   -13.2650    50.6780 cc         1 ZOQ      -0.105400
     19 C8          22.8070   -12.2850    51.5410 cd         1 ZOQ      -0.124100
     20 N10         21.0110   -17.9550    52.0620 ns         1 ZOQ      -0.318900
     21 N18         24.4440   -14.5530    45.1810 n3         1 ZOQ      -0.719500
     22 N3          21.8320   -16.3690    53.4610 nb         1 ZOQ      -0.712000
     23 N9          22.8770   -12.8340    52.8490 na         1 ZOQ      -0.212700
     24 O19         23.2130   -16.3730    46.4910 o          1 ZOQ      -0.536000
     25 O20         22.0210   -15.0560    44.6330 o          1 ZOQ      -0.536000
     26 O25         20.1470   -18.0920    49.9380 o          1 ZOQ      -0.577100
     27 S17         22.9470   -15.1230    45.7700 sy         1 ZOQ       1.169600
     28 H33         21.4490   -11.0170    49.4360 ha         1 ZOQ       0.108000
     29 H34         21.2580   -10.6340    46.9920 ha         1 ZOQ       0.116000
     30 H35         21.8990   -12.4160    45.3850 ha         1 ZOQ       0.137000
     31 H36         22.9660   -14.9920    48.7020 ha         1 ZOQ       0.138000
     32 H28         22.5690   -14.9160    54.7780 h4         1 ZOQ       0.020100
     33 H37         26.3120   -13.7150    45.7680 h1         1 ZOQ       0.053867
     34 H38         24.9580   -13.2420    46.7960 h1         1 ZOQ       0.053867
     35 H39         25.6370   -14.8840    46.9230 h1         1 ZOQ       0.053867
     36 H42         24.3960   -15.7020    43.3830 h1         1 ZOQ       0.053867
     37 H40         25.9810   -15.0180    43.7820 h1         1 ZOQ       0.053867
     38 H41         25.3670   -16.4150    44.6930 h1         1 ZOQ       0.053867
     39 H43         19.1420   -20.1950    51.8590 hc         1 ZOQ       0.085700
     40 H45         20.9650   -20.8110    49.3990 hc         1 ZOQ       0.083950
     41 H44         19.7650   -21.9550    50.1760 hc         1 ZOQ       0.083950
     42 H47         21.0240   -21.7920    52.3560 hc         1 ZOQ       0.083950
     43 H46         22.2230   -20.6500    51.5750 hc         1 ZOQ       0.083950
     44 H29         21.3000   -15.9480    50.1050 ha         1 ZOQ       0.168000
     45 H30         23.1170   -11.2660    51.3270 h4         1 ZOQ       0.216000
     46 H32         21.1350   -18.5090    52.8970 hn         1 ZOQ       0.163000
     47 H31         23.1940   -12.3610    53.6920 hn         1 ZOQ       0.357000
@<TRIPOS>BOND
     1     1     8 ar  
     2     1    17 ar  
     3     1    23 1   
     4     2     3 ar  
     5     2     7 ar  
     6     2    18 1   
     7     3     4 ar  
     8     3    28 1   
     9     4     5 ar  
    10     4    29 1   
    11     5     6 ar  
    12     5    30 1   
    13     6     7 ar  
    14     6    27 1   
    15     7    31 1   
    16     8    22 ar  
    17     8    32 1   
    18     9    21 1   
    19     9    33 1   
    20     9    34 1   
    21     9    35 1   
    22    10    21 1   
    23    10    36 1   
    24    10    37 1   
    25    10    38 1   
    26    11    12 1   
    27    11    20 1   
    28    11    26 2   
    29    12    13 1   
    30    12    14 1   
    31    12    39 1   
    32    13    14 1   
    33    13    40 1   
    34    13    41 1   
    35    14    42 1   
    36    14    43 1   
    37    15    16 ar  
    38    15    20 1   
    39    15    22 ar  
    40    16    17 ar  
    41    16    44 1   
    42    17    18 1   
    43    18    19 2   
    44    19    23 1   
    45    19    45 1   
    46    20    46 1   
    47    21    27 1   
    48    23    47 1   
    49    24    27 2   
    50    25    27 2   
@<TRIPOS>SUBSTRUCTURE
     1 ZOQ         1 TEMP              0 ****  ****    0 ROOT
