@<TRIPOS>MOLECULE
ZOT
   40    42     1     0     0
SMALL
No Charge or Current Charge


@<TRIPOS>ATOM
      1 C1          -0.1750     3.1670     0.1950 ca         1 ZOT       0.125000
      2 C10          2.0550    -1.5830     0.6200 ca         1 ZOT       0.029000
      3 C11          2.7680    -1.0130    -0.4620 ca         1 ZOT      -0.125000
      4 C12          1.1160     1.0190    -1.0590 ca         1 ZOT      -0.098000
      5 C13          1.4680     2.3410    -1.3880 ca         1 ZOT      -0.069000
      6 C14          0.8230     3.4170    -0.7580 ca         1 ZOT      -0.101000
      7 C15          4.1730    -1.0870    -0.5000 ca         1 ZOT      -0.065000
      8 C16          4.8800    -1.7360     0.5230 ca         1 ZOT      -0.123000
      9 C17          4.1790    -2.3410     1.5770 ca         1 ZOT      -0.089000
     10 C18          2.7770    -2.2740     1.6140 ca         1 ZOT      -0.118000
     11 C2          -0.5260     1.8480     0.5190 ca         1 ZOT      -0.075000
     12 C3           0.1200     0.7560    -0.0990 ca         1 ZOT      -0.001000
     13 C4          -0.2990    -0.6050     0.2570 cc         1 ZOT       0.173100
     14 C5          -2.2430    -2.0310     0.9060 c3         1 ZOT       0.160600
     15 C6          -3.7910    -1.9050     0.8580 c3         1 ZOT       0.166800
     16 C7          -4.1080    -2.7510    -1.4650 c3         1 ZOT       0.148600
     17 C8          -5.8490    -1.3840    -0.4000 c3         1 ZOT       0.148600
     18 C9           0.5840    -1.5700     0.7400 cd         1 ZOT      -0.230000
     19 N1          -4.4010    -1.6770    -0.4860 n3         1 ZOT      -0.699600
     20 O1          -1.6590    -0.8150     0.3920 os         1 ZOT      -0.327100
     21 S1           1.9360    -0.3210    -1.8790 ss         1 ZOT       0.034000
     22 Cl1         -0.9900     4.5120     0.9840 cl         1 ZOT      -0.198000
     23 H1           2.2400     2.5320    -2.1310 ha         1 ZOT       0.132000
     24 H2           1.0940     4.4400    -1.0090 ha         1 ZOT       0.132000
     25 H3           4.7180    -0.6550    -1.3380 ha         1 ZOT       0.124000
     26 H4           5.9650    -1.7910     0.4870 ha         1 ZOT       0.116000
     27 H5           4.7210    -2.8620     2.3630 ha         1 ZOT       0.113000
     28 H6           2.2470    -2.7450     2.4380 ha         1 ZOT       0.111000
     29 H7          -1.3040     1.6720     1.2580 ha         1 ZOT       0.142000
     30 H8          -1.9390    -2.1930     1.9480 h1         1 ZOT       0.037200
     31 H9          -1.9240    -2.8990     0.3160 h1         1 ZOT       0.037200
     32 H10         -4.2130    -2.8180     1.3010 h1         1 ZOT       0.040200
     33 H11         -4.0680    -1.0790     1.5270 h1         1 ZOT       0.040200
     34 H12         -4.4980    -3.7170    -1.1150 h1         1 ZOT       0.031700
     35 H13         -4.5700    -2.5260    -2.4350 h1         1 ZOT       0.031700
     36 H14         -3.0280    -2.8520    -1.6300 h1         1 ZOT       0.031700
     37 H15         -6.0340    -0.5290     0.2630 h1         1 ZOT       0.031700
     38 H16         -6.2550    -1.1360    -1.3900 h1         1 ZOT       0.031700
     39 H17         -6.4010    -2.2490    -0.0080 h1         1 ZOT       0.031700
     40 H18          0.1810    -2.4660     1.1920 ha         1 ZOT       0.115000
@<TRIPOS>BOND
     1     1     6 ar  
     2     1    11 ar  
     3     1    22 1   
     4     2     3 ar  
     5     2    10 ar  
     6     2    18 1   
     7     3     7 ar  
     8     3    21 1   
     9     4     5 ar  
    10     4    12 ar  
    11     4    21 1   
    12     5     6 ar  
    13     5    23 1   
    14     6    24 1   
    15     7     8 ar  
    16     7    25 1   
    17     8     9 ar  
    18     8    26 1   
    19     9    10 ar  
    20     9    27 1   
    21    10    28 1   
    22    11    12 ar  
    23    11    29 1   
    24    12    13 1   
    25    13    18 2   
    26    13    20 1   
    27    14    15 1   
    28    14    20 1   
    29    14    30 1   
    30    14    31 1   
    31    15    19 1   
    32    15    32 1   
    33    15    33 1   
    34    16    19 1   
    35    16    34 1   
    36    16    35 1   
    37    16    36 1   
    38    17    19 1   
    39    17    37 1   
    40    17    38 1   
    41    17    39 1   
    42    18    40 1   
@<TRIPOS>SUBSTRUCTURE
     1 ZOT         1 TEMP              0 ****  ****    0 ROOT
