@<TRIPOS>MOLECULE
ZOT
   40    42     1     0     0
SMALL
abcg2


@<TRIPOS>ATOM
      1 C1          -0.3490     3.0090     0.0820 ca         1 ZOT       0.125000
      2 C10          2.0540    -1.6470     0.5490 ca         1 ZOT       0.029000
      3 C11          2.8250    -1.0280    -0.4410 ca         1 ZOT      -0.125000
      4 C12          1.1190     0.9640    -1.0500 ca         1 ZOT      -0.098000
      5 C13          1.4060     2.2900    -1.3580 ca         1 ZOT      -0.069000
      6 C14          0.6720     3.3220    -0.8020 ca         1 ZOT      -0.101000
      7 C15          4.2150    -1.0260    -0.3750 ca         1 ZOT      -0.065000
      8 C16          4.8640    -1.6650     0.6690 ca         1 ZOT      -0.123000
      9 C17          4.1170    -2.3000     1.6540 ca         1 ZOT      -0.089000
     10 C18          2.7340    -2.2890     1.5920 ca         1 ZOT      -0.118000
     11 C2          -0.6500     1.6980     0.4020 ca         1 ZOT      -0.075000
     12 C3           0.0860     0.6540    -0.1630 ca         1 ZOT      -0.001000
     13 C4          -0.2720    -0.7300     0.2070 cc         1 ZOT       0.173100
     14 C5          -2.1720    -2.0570     0.7810 c3         1 ZOT       0.160600
     15 C6          -3.6740    -1.8900     0.8420 c3         1 ZOT       0.166800
     16 C7          -4.1490    -2.6170    -1.4090 c3         1 ZOT       0.148600
     17 C8          -5.6860    -1.2250    -0.2370 c3         1 ZOT       0.148600
     18 C9           0.5960    -1.7080     0.5320 cd         1 ZOT      -0.230000
     19 N1          -4.2930    -1.5650    -0.4260 n3         1 ZOT      -0.699600
     20 O1          -1.6070    -0.8540     0.2870 os         1 ZOT      -0.327100
     21 S1           2.0360    -0.3140    -1.8540 ss         1 ZOT       0.034000
     22 CL1         -1.2670     4.2860     0.8050 cl         1 ZOT      -0.198000
     23 H1           2.2120     2.5150    -2.0440 ha         1 ZOT       0.132000
     24 H2           0.8990     4.3500    -1.0480 ha         1 ZOT       0.132000
     25 H3           4.7850    -0.5310    -1.1510 ha         1 ZOT       0.124000
     26 H4           5.9460    -1.6700     0.7110 ha         1 ZOT       0.116000
     27 H5           4.6120    -2.8020     2.4740 ha         1 ZOT       0.113000
     28 H6           2.1600    -2.7840     2.3650 ha         1 ZOT       0.111000
     29 H7          -1.4520     1.4870     1.0950 ha         1 ZOT       0.142000
     30 H8          -1.8030    -2.2700     1.7900 h1         1 ZOT       0.037200
     31 H9          -1.8830    -2.9000     0.1450 h1         1 ZOT       0.037200
     32 H10         -4.0780    -2.8200     1.2810 h1         1 ZOT       0.040200
     33 H11         -3.9040    -1.0900     1.5520 h1         1 ZOT       0.040200
     34 H12         -4.5850    -3.5760    -1.0860 h1         1 ZOT       0.031700
     35 H13         -4.6440    -2.3210    -2.3340 h1         1 ZOT       0.031700
     36 H14         -3.1000    -2.7920    -1.6500 h1         1 ZOT       0.031700
     37 H15         -5.7790    -0.3910     0.4600 h1         1 ZOT       0.031700
     38 H16         -6.1280    -0.9170    -1.1860 h1         1 ZOT       0.031700
     39 H17         -6.2900    -2.0590     0.1570 h1         1 ZOT       0.031700
     40 H18          0.1960    -2.6410     0.9100 ha         1 ZOT       0.115000
@<TRIPOS>BOND
     1     1     6 ar  
     2     1    11 ar  
     3     1    22 1   
     4     2     3 ar  
     5     2    10 ar  
     6     2    18 1   
     7     3     7 ar  
     8     3    21 1   
     9     4     5 ar  
    10     4    12 ar  
    11     4    21 1   
    12     5     6 ar  
    13     5    23 1   
    14     6    24 1   
    15     7     8 ar  
    16     7    25 1   
    17     8     9 ar  
    18     8    26 1   
    19     9    10 ar  
    20     9    27 1   
    21    10    28 1   
    22    11    12 ar  
    23    11    29 1   
    24    12    13 1   
    25    13    18 2   
    26    13    20 1   
    27    14    15 1   
    28    14    20 1   
    29    14    30 1   
    30    14    31 1   
    31    15    19 1   
    32    15    32 1   
    33    15    33 1   
    34    16    19 1   
    35    16    34 1   
    36    16    35 1   
    37    16    36 1   
    38    17    19 1   
    39    17    37 1   
    40    17    38 1   
    41    17    39 1   
    42    18    40 1   
@<TRIPOS>SUBSTRUCTURE
     1 ZOT         1 TEMP              0 ****  ****    0 ROOT
