@<TRIPOS>MOLECULE
ZOU
   46    48     1     0     0
SMALL
abcg2


@<TRIPOS>ATOM
      1 N1         -16.6430    17.6710    26.2210 ns         1 ZOU      -0.157000
      2 N3         -19.3780    13.5770    25.8640 n          1 ZOU      -0.405800
      3 C4         -14.3410    21.0550    27.1310 ca         1 ZOU      -0.078000
      4 C5         -13.7180    19.8140    27.0640 ca         1 ZOU      -0.099300
      5 C6         -12.2420    19.6570    27.3160 c3         1 ZOU      -0.039800
      6 C7         -14.5170    18.7020    26.7840 ca         1 ZOU      -0.108000
      7 C8         -15.8820    18.8140    26.5640 ca         1 ZOU      -0.060000
      8 C10        -18.4090    15.7050    25.1690 c6         1 ZOU       0.093500
      9 C13        -19.3470    15.4840    27.4080 c6         1 ZOU       0.093500
     10 C15        -21.2710    12.0460    26.1300 cc         1 ZOU       0.063500
     11 C17        -22.9880    10.8730    26.9590 cd         1 ZOU      -0.196000
     12 C1         -18.4730    21.3970    26.3850 c3         1 ZOU       0.148900
     13 C11        -18.3450    14.1890    25.0330 c6         1 ZOU       0.085500
     14 C12        -19.2820    13.9690    27.2700 c6         1 ZOU       0.085500
     15 C14        -20.1140    12.5530    25.3660 c          1 ZOU       0.542600
     16 C16        -21.8630    10.8190    26.0840 cd         1 ZOU      -0.105000
     17 C18        -23.0150    12.1330    27.4660 cc         1 ZOU       0.145900
     18 C2         -16.4930    20.0810    26.6150 ca         1 ZOU       0.149100
     19 C3         -15.7120    21.1930    26.9130 ca         1 ZOU      -0.183000
     20 C9         -17.6350    17.1830    27.0490 c          1 ZOU       0.661100
     21 N2         -18.3260    16.1020    26.5720 n          1 ZOU      -0.435800
     22 O1         -17.8230    20.1300    26.3380 os         1 ZOU      -0.331100
     23 O2         -17.8680    17.6800    28.1500 o          1 ZOU      -0.618100
     24 O3         -19.8710    12.0350    24.2700 o          1 ZOU      -0.596100
     25 O4         -21.9780    12.8620    26.9750 os         1 ZOU      -0.247000
     26 H10        -16.1870    17.0170    25.6050 hn         1 ZOU       0.144000
     27 H5         -13.7540    21.9380    27.3510 ha         1 ZOU       0.112000
     28 H8         -12.0520    19.2540    28.3150 hc         1 ZOU       0.041033
     29 H6         -11.7880    18.9690    26.5990 hc         1 ZOU       0.041033
     30 H7         -11.7290    20.6160    27.2420 hc         1 ZOU       0.041033
     31 H9         -14.0700    17.7150    26.7340 ha         1 ZOU       0.112000
     32 H11        -19.3590    16.0620    24.7530 h1         1 ZOU       0.061950
     33 H12        -17.6080    16.1490    24.5880 h1         1 ZOU       0.061950
     34 H18        -20.3410    15.8390    27.1100 h1         1 ZOU       0.061950
     35 H17        -19.1740    15.7710    28.4400 h1         1 ZOU       0.061950
     36 H20        -23.6850    10.0810    27.1770 ha         1 ZOU       0.147000
     37 H1         -19.5150    21.2050    26.1380 h1         1 ZOU       0.041367
     38 H2         -18.4080    21.8360    27.3830 h1         1 ZOU       0.041367
     39 H3         -18.0450    22.0880    25.6550 h1         1 ZOU       0.041367
     40 H14        -18.5100    13.8980    24.0000 h1         1 ZOU       0.063450
     41 H13        -17.3600    13.8270    25.3460 h1         1 ZOU       0.063450
     42 H15        -20.0720    13.5110    27.8510 h1         1 ZOU       0.063450
     43 H16        -18.3190    13.6160    27.6550 h1         1 ZOU       0.063450
     44 H19        -21.5310     9.9810    25.4960 ha         1 ZOU       0.156000
     45 H21        -23.6720    12.6480    28.1460 h4         1 ZOU       0.055100
     46 H4         -16.1570    22.1760    26.9590 ha         1 ZOU       0.119000
@<TRIPOS>BOND
     1     1     7 1   
     2     1    20 1   
     3     1    26 1   
     4     2    13 1   
     5     2    14 1   
     6     2    15 1   
     7     3     4 ar  
     8     3    19 ar  
     9     3    27 1   
    10     4     5 1   
    11     4     6 ar  
    12     5    28 1   
    13     5    29 1   
    14     5    30 1   
    15     6     7 ar  
    16     6    31 1   
    17     7    18 ar  
    18     8    13 1   
    19     8    21 1   
    20     8    32 1   
    21     8    33 1   
    22     9    14 1   
    23     9    21 1   
    24     9    34 1   
    25     9    35 1   
    26    10    15 1   
    27    10    16 2   
    28    10    25 1   
    29    11    16 1   
    30    11    17 2   
    31    11    36 1   
    32    12    22 1   
    33    12    37 1   
    34    12    38 1   
    35    12    39 1   
    36    13    40 1   
    37    13    41 1   
    38    14    42 1   
    39    14    43 1   
    40    15    24 2   
    41    16    44 1   
    42    17    25 1   
    43    17    45 1   
    44    18    19 ar  
    45    18    22 1   
    46    19    46 1   
    47    20    21 1   
    48    20    23 2   
@<TRIPOS>SUBSTRUCTURE
     1 ZOU         1 TEMP              0 ****  ****    0 ROOT
