@<TRIPOS>MOLECULE
ZOU
   46    48     1     0     0
SMALL
No Charge or Current Charge


@<TRIPOS>ATOM
      1 N1         -16.4580    17.6450    26.6110 ns         1 ZOU      -0.157000
      2 N3         -19.4030    13.4280    26.0600 n          1 ZOU      -0.405800
      3 C4         -14.3780    21.3320    26.7380 ca         1 ZOU      -0.078000
      4 C5         -13.6780    20.1210    26.6040 ca         1 ZOU      -0.099300
      5 C6         -12.1590    20.1170    26.5150 c3         1 ZOU      -0.039800
      6 C7         -14.3930    18.9100    26.5620 ca         1 ZOU      -0.108000
      7 C8         -15.7960    18.9000    26.6610 ca         1 ZOU      -0.060000
      8 C10        -17.7170    15.3010    25.6700 c6         1 ZOU       0.093500
      9 C13        -19.2210    15.3600    27.6960 c6         1 ZOU       0.093500
     10 C15        -21.4740    12.0190    26.0120 cc         1 ZOU       0.063500
     11 C17        -23.5030    11.0990    26.2220 cd         1 ZOU      -0.196000
     12 C1         -18.6800    21.2970    26.8740 c3         1 ZOU       0.148900
     13 C11        -18.0860    13.8070    25.4860 c6         1 ZOU       0.085500
     14 C12        -19.5050    13.8560    27.4820 c6         1 ZOU       0.085500
     15 C14        -20.0610    12.2650    25.5730 c          1 ZOU       0.542600
     16 C16        -22.2130    10.9100    25.6870 cd         1 ZOU      -0.105000
     17 C18        -23.5130    12.3210    26.8370 cc         1 ZOU       0.145900
     18 C2         -16.5030    20.1230    26.7650 ca         1 ZOU       0.149100
     19 C3         -15.7810    21.3370    26.8110 ca         1 ZOU      -0.183000
     20 C9         -17.4610    17.1280    27.4200 c          1 ZOU       0.661100
     21 N2         -17.9970    15.8800    27.0210 n          1 ZOU      -0.435800
     22 O1         -17.8870    20.1020    26.7660 os         1 ZOU      -0.331100
     23 O2         -17.8460    17.6870    28.4400 o          1 ZOU      -0.618100
     24 O3         -19.4910    11.5150    24.7870 o          1 ZOU      -0.596100
     25 O4         -22.2740    12.9090    26.7060 os         1 ZOU      -0.247000
     26 H10        -16.1670    17.0460    25.8510 hn         1 ZOU       0.144000
     27 H5         -13.8350    22.2740    26.7750 ha         1 ZOU       0.112000
     28 H8         -11.7100    20.0170    27.5100 hc         1 ZOU       0.041033
     29 H6         -11.7970    19.2860    25.8990 hc         1 ZOU       0.041033
     30 H7         -11.7820    21.0450    26.0690 hc         1 ZOU       0.041033
     31 H9         -13.8530    17.9700    26.4650 ha         1 ZOU       0.112000
     32 H11        -18.2800    15.8870    24.9300 h1         1 ZOU       0.061950
     33 H12        -16.6520    15.4080    25.4240 h1         1 ZOU       0.061950
     34 H18        -20.0840    15.9320    27.3250 h1         1 ZOU       0.061950
     35 H17        -19.1560    15.5450    28.7770 h1         1 ZOU       0.061950
     36 H20        -24.3420    10.4130    26.1550 ha         1 ZOU       0.147000
     37 H1         -19.7480    21.0460    26.8650 h1         1 ZOU       0.041367
     38 H2         -18.4630    21.8260    27.8110 h1         1 ZOU       0.041367
     39 H3         -18.4830    21.9730    26.0320 h1         1 ZOU       0.041367
     40 H14        -18.0620    13.5750    24.4120 h1         1 ZOU       0.063450
     41 H13        -17.3110    13.1920    25.9660 h1         1 ZOU       0.063450
     42 H15        -20.4730    13.6160    27.9320 h1         1 ZOU       0.063450
     43 H16        -18.7600    13.2880    28.0560 h1         1 ZOU       0.063450
     44 H19        -21.8640    10.0520    25.1200 ha         1 ZOU       0.156000
     45 H21        -24.2830    12.8660    27.3670 h4         1 ZOU       0.055100
     46 H4         -16.2890    22.2940    26.8920 ha         1 ZOU       0.119000
@<TRIPOS>BOND
     1     1     7 1   
     2     1    20 1   
     3     1    26 1   
     4     2    13 1   
     5     2    14 1   
     6     2    15 1   
     7     3     4 ar  
     8     3    19 ar  
     9     3    27 1   
    10     4     5 1   
    11     4     6 ar  
    12     5    28 1   
    13     5    29 1   
    14     5    30 1   
    15     6     7 ar  
    16     6    31 1   
    17     7    18 ar  
    18     8    13 1   
    19     8    21 1   
    20     8    32 1   
    21     8    33 1   
    22     9    14 1   
    23     9    21 1   
    24     9    34 1   
    25     9    35 1   
    26    10    15 1   
    27    10    16 2   
    28    10    25 1   
    29    11    16 1   
    30    11    17 2   
    31    11    36 1   
    32    12    22 1   
    33    12    37 1   
    34    12    38 1   
    35    12    39 1   
    36    13    40 1   
    37    13    41 1   
    38    14    42 1   
    39    14    43 1   
    40    15    24 2   
    41    16    44 1   
    42    17    25 1   
    43    17    45 1   
    44    18    19 ar  
    45    18    22 1   
    46    19    46 1   
    47    20    21 1   
    48    20    23 2   
@<TRIPOS>SUBSTRUCTURE
     1 ZOU         1 TEMP              0 ****  ****    0 ROOT
