@<TRIPOS>MOLECULE
ZOV
   41    45     1     0     0
SMALL
bcc


@<TRIPOS>ATOM
      1 C1          10.3300    21.9970    21.2270 ca         1 ZOV      -0.049800
      2 C2          10.6570    23.5180    19.4020 ca         1 ZOV       0.080400
      3 C3          10.2790    22.5060    18.5060 ca         1 ZOV      -0.058100
      4 C4          10.8590    24.6490    17.5420 cc         1 ZOV       0.386100
      5 C5          10.3030    21.7090    22.6770 cc         1 ZOV      -0.004400
      6 C6          10.6810    23.2560    20.7730 ca         1 ZOV      -0.062000
      7 C11          9.3900    22.2830    23.4980 cd         1 ZOV      -0.125400
      8 C12         12.2630    20.0080    22.9530 ca         1 ZOV       0.730200
      9 C13         12.5270    19.1320    25.0670 ca         1 ZOV       0.494200
     10 C16         10.6480    18.6840    27.7470 cc         1 ZOV      -0.294300
     11 C17         10.4940    19.1460    29.0660 cc         1 ZOV       0.318600
     12 C10         10.8290    20.7180    24.7450 ca         1 ZOV       0.028900
     13 C14         11.5120    19.8760    25.6340 ca         1 ZOV      -0.193300
     14 C15         11.1590    19.7570    27.0480 cd         1 ZOV      -0.039300
     15 C19          9.9780    18.4000    30.2480 c3         1 ZOV      -0.117400
     16 C7           9.9260    21.2370    18.9530 ca         1 ZOV      -0.093000
     17 C8           9.9570    20.9960    20.3110 ca         1 ZOV      -0.104000
     18 C9          11.1620    20.7970    23.3900 ca         1 ZOV      -0.246100
     19 N1          10.9800    24.7200    18.8180 nd         1 ZOV      -0.520100
     20 N2          12.8970    19.1950    23.7890 nb         1 ZOV      -0.772000
     21 N3          12.6970    20.0230    21.6740 nv         1 ZOV      -0.949500
     22 N4          10.8830    20.4070    29.1610 nd         1 ZOV      -0.523800
     23 N5          11.2850    20.7640    27.9440 na         1 ZOV       0.117400
     24 S1          10.3410    23.1240    16.8940 ss         1 ZOV      -0.091100
     25 S2           9.5020    21.7470    25.1340 ss         1 ZOV      -0.010500
     26 H1          11.0610    25.4760    16.8730 h5         1 ZOV       0.060800
     27 H2          10.9760    24.0340    21.4660 ha         1 ZOV       0.157000
     28 H3           8.6210    22.9870    23.2170 h4         1 ZOV       0.174000
     29 H4          13.0910    18.4470    25.6920 h4         1 ZOV       0.026100
     30 H5          10.4070    17.7120    27.3490 ha         1 ZOV       0.164000
     31 H6          12.4830    22.3490    28.5410 h1         1 ZOV       0.057033
     32 H7          12.3630    22.1160    26.7940 h1         1 ZOV       0.057033
     33 H8          11.0080    22.8290    27.6810 h1         1 ZOV       0.057033
     34 H9           9.9440    19.0410    31.1270 hc         1 ZOV       0.045700
     35 H10          8.9720    18.0200    30.0680 hc         1 ZOV       0.045700
     36 H11         10.6090    17.5420    30.4820 hc         1 ZOV       0.045700
     37 H12          9.6300    20.4590    18.2620 ha         1 ZOV       0.148000
     38 H13          9.6790    20.0180    20.6820 ha         1 ZOV       0.149000
     39 H14         13.5800    19.5740    21.4890 hn         1 ZOV       0.434800
     40 H15         12.4620    20.7860    21.0640 hn         1 ZOV       0.434800
     41 C18         11.8080    22.0920    27.7280 c3         1 ZOV       0.040600
@<TRIPOS>BOND
     1     1     5 1   
     2     1     6 ar  
     3     1    17 ar  
     4     2     3 ar  
     5     2     6 ar  
     6     2    19 1   
     7     3    16 ar  
     8     3    24 1   
     9     4    19 2   
    10     4    24 1   
    11     4    26 1   
    12     5     7 2   
    13     5    18 1   
    14     6    27 1   
    15     7    25 1   
    16     7    28 1   
    17     8    18 ar  
    18     8    20 ar  
    19     8    21 1   
    20     9    13 ar  
    21     9    20 ar  
    22     9    29 1   
    23    10    11 1   
    24    10    14 2   
    25    10    30 1   
    26    11    15 1   
    27    11    22 2   
    28    12    13 ar  
    29    12    18 ar  
    30    12    25 1   
    31    13    14 1   
    32    14    23 1   
    33    15    34 1   
    34    15    35 1   
    35    15    36 1   
    36    16    17 ar  
    37    16    37 1   
    38    17    38 1   
    39    21    39 1   
    40    21    40 1   
    41    22    23 1   
    42    23    41 1   
    43    31    41 1   
    44    32    41 1   
    45    33    41 1   
@<TRIPOS>SUBSTRUCTURE
     1 ZOV         1 TEMP              0 ****  ****    0 ROOT
