@<TRIPOS>MOLECULE
ZOV
   41    45     1     0     0
SMALL
No Charge or Current Charge


@<TRIPOS>ATOM
      1 C1          10.3790    22.0900    21.1900 ca         1 ZOV      -0.049800
      2 C2          10.8950    23.5800    19.3340 ca         1 ZOV       0.080400
      3 C3          10.4710    22.6100    18.4490 ca         1 ZOV      -0.185000
      4 C4          11.2460    24.6470    17.4420 cc         1 ZOV       0.386100
      5 C5          10.3190    21.8320    22.6250 cc         1 ZOV      -0.004400
      6 C6          10.8510    23.3340    20.7160 ca         1 ZOV      -0.044000
      7 C11          9.4880    22.6150    23.4020 cd         1 ZOV      -0.175400
      8 C12         11.8590    19.7910    22.9450 ca         1 ZOV       0.664900
      9 C13         12.0420    18.8940    25.0360 ca         1 ZOV       0.428900
     10 C16         10.9740    18.7180    27.8540 cc         1 ZOV      -0.211000
     11 C17         10.8130    19.1220    29.1820 cc         1 ZOV       0.253300
     12 C10         10.6640    20.8520    24.7410 ca         1 ZOV      -0.098000
     13 C14         11.2120    19.8870    25.6200 ca         1 ZOV      -0.128000
     14 C15         10.9420    19.8360    27.0750 cd         1 ZOV      -0.090000
     15 C19         10.7530    18.1500    30.3240 c3         1 ZOV      -0.117400
     16 C7           9.9860    21.3690    18.8860 ca         1 ZOV      -0.075000
     17 C8           9.9390    21.1140    20.2690 ca         1 ZOV      -0.086000
     18 C9          10.9820    20.7940    23.3940 ca         1 ZOV      -0.180800
     19 N1          11.3490    24.7690    18.7760 nd         1 ZOV      -0.520100
     20 N2          12.3830    18.8550    23.7230 nb         1 ZOV      -0.772000
     21 N3          12.2940    19.6370    21.6960 nv         1 ZOV      -1.059900
     22 N4          10.7670    20.4270    29.3270 nd         1 ZOV      -0.523800
     23 N5          10.8930    20.8870    28.0200 na         1 ZOV       0.138800
     24 S1          10.6100    23.1260    16.7760 ss         1 ZOV       0.035800
     25 S2           9.4440    22.1020    25.1080 ss         1 ZOV       0.116400
     26 H1          11.5300    25.4260    16.7460 h5         1 ZOV       0.060800
     27 H2          11.1860    24.0970    21.4140 ha         1 ZOV       0.139000
     28 H3           8.8650    23.4410    23.0780 h4         1 ZOV       0.224000
     29 H4          12.4890    18.1170    25.6550 h4         1 ZOV       0.026100
     30 H5          11.0710    17.6880    27.5290 ha         1 ZOV       0.146000
     31 H6          11.7460    22.7200    28.6170 h1         1 ZOV       0.057033
     32 H7          11.6930    22.4610    26.8560 h1         1 ZOV       0.057033
     33 H8          10.1890    22.8580    27.7570 h1         1 ZOV       0.057033
     34 H9          10.4140    18.6390    31.2460 hc         1 ZOV       0.045700
     35 H10         10.0580    17.3320    30.1020 hc         1 ZOV       0.045700
     36 H11         11.7410    17.7150    30.5140 hc         1 ZOV       0.045700
     37 H12          9.6500    20.6190    18.1720 ha         1 ZOV       0.130000
     38 H13          9.5580    20.1600    20.6280 ha         1 ZOV       0.131000
     39 H14         13.1190    19.0580    21.6100 hn         1 ZOV       0.490000
     40 H15         12.2310    20.4430    21.0870 hn         1 ZOV       0.490000
     41 C18         11.1420    22.3190    27.7940 c3         1 ZOV       0.069900
@<TRIPOS>BOND
     1     1     5 1   
     2     1     6 ar  
     3     1    17 ar  
     4     2     3 ar  
     5     2     6 ar  
     6     2    19 1   
     7     3    16 ar  
     8     3    24 1   
     9     4    19 2   
    10     4    24 1   
    11     4    26 1   
    12     5     7 2   
    13     5    18 1   
    14     6    27 1   
    15     7    25 1   
    16     7    28 1   
    17     8    18 ar  
    18     8    20 ar  
    19     8    21 1   
    20     9    13 ar  
    21     9    20 ar  
    22     9    29 1   
    23    10    11 1   
    24    10    14 2   
    25    10    30 1   
    26    11    15 1   
    27    11    22 2   
    28    12    13 ar  
    29    12    18 ar  
    30    12    25 1   
    31    13    14 1   
    32    14    23 1   
    33    15    34 1   
    34    15    35 1   
    35    15    36 1   
    36    16    17 ar  
    37    16    37 1   
    38    17    38 1   
    39    21    39 1   
    40    21    40 1   
    41    22    23 1   
    42    23    41 1   
    43    31    41 1   
    44    32    41 1   
    45    33    41 1   
@<TRIPOS>SUBSTRUCTURE
     1 ZOV         1 TEMP              0 ****  ****    0 ROOT
