@<TRIPOS>MOLECULE
ZOY
   61    61     1     0     0
SMALL
abcg2


@<TRIPOS>ATOM
      1 N          115.0640    -2.9190    12.3240 n8         1 ZOY      -0.984200
      2 C1         116.0900    -2.0070    11.8730 c3         1 ZOY       0.087500
      3 C16        120.6520    -7.2880    11.6190 c3         1 ZOY      -0.157400
      4 C17        122.1630    -7.4800    11.6570 c3         1 ZOY      -0.063400
      5 C18        122.8290    -7.3010    10.2970 c3         1 ZOY      -0.075400
      6 C19        124.3130    -7.6570    10.2870 c3         1 ZOY      -0.072400
      7 C2         116.9490    -2.6530    10.7790 c3         1 ZOY      -0.064400
      8 C20        125.1840    -6.7480    11.1480 c3         1 ZOY      -0.078400
      9 C21        126.6610    -7.1200    11.0800 c3         1 ZOY      -0.074400
     10 C22        127.5860    -6.1830    11.8520 c3         1 ZOY      -0.074400
     11 C23        127.3570    -6.1870    13.3580 c3         1 ZOY      -0.070400
     12 C24        128.3280    -5.2860    14.1270 c3         1 ZOY      -0.032100
     13 C25        129.7600    -5.7390    14.0400 ca         1 ZOY      -0.074300
     14 C26        130.7010    -5.0450    13.2850 ca         1 ZOY      -0.109000
     15 C27        132.0170    -5.4850    13.2000 ca         1 ZOY      -0.109500
     16 C28        132.4130    -6.6330    13.8720 ca         1 ZOY      -0.114000
     17 C29        131.4830    -7.3350    14.6300 ca         1 ZOY      -0.109500
     18 C3         117.6050    -3.9570    11.2130 c3         1 ZOY      -0.095400
     19 C30        130.1720    -6.8910    14.7110 ca         1 ZOY      -0.109000
     20 C4         118.5790    -4.4650    10.1560 c3         1 ZOY       0.103000
     21 C5         120.2420    -5.8630    11.3090 c          1 ZOY       0.598100
     22 C6         115.5370    -0.6820    11.3340 c          1 ZOY       0.561100
     23 N1         119.1830    -5.7350    10.4900 ns         1 ZOY      -0.508900
     24 N2         116.3890     0.3530    11.3930 nt         1 ZOY      -0.606000
     25 O1         120.8270    -4.9010    11.7890 o          1 ZOY      -0.607100
     26 O2         114.4130    -0.5970    10.8620 o          1 ZOY      -0.613100
     27 H1         114.5370    -2.5010    13.0810 hn         1 ZOY       0.408500
     28 H8         114.3980    -3.0750    11.5760 hn         1 ZOY       0.408500
     29 H          116.7430    -1.7880    12.7250 h1         1 ZOY       0.067700
     30 H5         120.2290    -7.5320    12.5990 hc         1 ZOY       0.054700
     31 H3         120.2020    -7.9870    10.9100 hc         1 ZOY       0.054700
     32 H30        122.3710    -8.4890    12.0260 hc         1 ZOY       0.050700
     33 H31        122.5940    -6.7950    12.3890 hc         1 ZOY       0.050700
     34 H32        122.7040    -6.2680     9.9530 hc         1 ZOY       0.040200
     35 H33        122.3110    -7.9280     9.5650 hc         1 ZOY       0.040200
     36 H34        124.4360    -8.6950    10.6160 hc         1 ZOY       0.035200
     37 H35        124.6790    -7.6220     9.2560 hc         1 ZOY       0.035200
     38 H9         117.7240    -1.9430    10.4740 hc         1 ZOY       0.043700
     39 H10        116.3300    -2.8290     9.8920 hc         1 ZOY       0.043700
     40 H36        125.0560    -5.7090    10.8200 hc         1 ZOY       0.041700
     41 H37        124.8410    -6.7820    12.1850 hc         1 ZOY       0.041700
     42 H39        126.7940    -8.1430    11.4490 hc         1 ZOY       0.036200
     43 H38        126.9720    -7.1360    10.0300 hc         1 ZOY       0.036200
     44 H40        128.6220    -6.4670    11.6450 hc         1 ZOY       0.041200
     45 H41        127.4710    -5.1620    11.4720 hc         1 ZOY       0.041200
     46 H42        126.3400    -5.8560    13.5830 hc         1 ZOY       0.040200
     47 H43        127.4350    -7.2120    13.7360 hc         1 ZOY       0.040200
     48 H44        128.2410    -4.2620    13.7530 hc         1 ZOY       0.046200
     49 H45        128.0230    -5.2580    15.1760 hc         1 ZOY       0.046200
     50 H46        130.4030    -4.1460    12.7570 ha         1 ZOY       0.109500
     51 H47        132.7330    -4.9290    12.6080 ha         1 ZOY       0.110000
     52 H48        133.4380    -6.9760    13.8100 ha         1 ZOY       0.111000
     53 H49        131.7830    -8.2290    15.1620 ha         1 ZOY       0.110000
     54 H12        116.8440    -4.7160    11.4000 hc         1 ZOY       0.058700
     55 H11        118.1390    -3.8040    12.1550 hc         1 ZOY       0.058700
     56 H50        129.4570    -7.4430    15.3100 ha         1 ZOY       0.109500
     57 H13        119.3670    -3.7290     9.9890 h1         1 ZOY       0.049700
     58 H14        118.0600    -4.5900     9.2040 h1         1 ZOY       0.049700
     59 H15        118.7250    -6.5690    10.1630 hn         1 ZOY       0.310500
     60 H17        116.1410     1.2470    11.0010 hn         1 ZOY       0.314500
     61 H16        117.3100     0.2620    11.7860 hn         1 ZOY       0.314500
@<TRIPOS>BOND
     1     1     2 1   
     2     1    27 1   
     3     1    28 1   
     4     2     7 1   
     5     2    22 1   
     6     2    29 1   
     7     3     4 1   
     8     3    21 1   
     9     3    30 1   
    10     3    31 1   
    11     4     5 1   
    12     4    32 1   
    13     4    33 1   
    14     5     6 1   
    15     5    34 1   
    16     5    35 1   
    17     6     8 1   
    18     6    36 1   
    19     6    37 1   
    20     7    18 1   
    21     7    38 1   
    22     7    39 1   
    23     8     9 1   
    24     8    40 1   
    25     8    41 1   
    26     9    10 1   
    27     9    42 1   
    28     9    43 1   
    29    10    11 1   
    30    10    44 1   
    31    10    45 1   
    32    11    12 1   
    33    11    46 1   
    34    11    47 1   
    35    12    13 1   
    36    12    48 1   
    37    12    49 1   
    38    13    14 ar  
    39    13    19 ar  
    40    14    15 ar  
    41    14    50 1   
    42    15    16 ar  
    43    15    51 1   
    44    16    17 ar  
    45    16    52 1   
    46    17    19 ar  
    47    17    53 1   
    48    18    20 1   
    49    18    54 1   
    50    18    55 1   
    51    19    56 1   
    52    20    23 1   
    53    20    57 1   
    54    20    58 1   
    55    21    23 1   
    56    21    25 2   
    57    22    24 1   
    58    22    26 2   
    59    23    59 1   
    60    24    60 1   
    61    24    61 1   
@<TRIPOS>SUBSTRUCTURE
     1 ZOY         1 TEMP              0 ****  ****    0 ROOT
