@<TRIPOS>MOLECULE
ZOY
   61    61     1     0     0
SMALL
No Charge or Current Charge


@<TRIPOS>ATOM
      1 N          114.6790    -3.0680    10.9950 n8         1 ZOY      -0.984200
      2 C1         115.7840    -2.1090    11.3420 c3         1 ZOY       0.087500
      3 C16        120.4870    -7.3470    12.1980 c3         1 ZOY      -0.157400
      4 C17        122.0150    -7.5780    12.0900 c3         1 ZOY      -0.063400
      5 C18        122.5960    -7.2540    10.6910 c3         1 ZOY      -0.075400
      6 C19        124.0960    -7.5950    10.5280 c3         1 ZOY      -0.072400
      7 C2         117.1100    -2.5300    10.6460 c3         1 ZOY      -0.064400
      8 C20        125.0450    -6.7470    11.4080 c3         1 ZOY      -0.078400
      9 C21        126.5380    -7.0580    11.1530 c3         1 ZOY      -0.074400
     10 C22        127.5250    -6.1700    11.9500 c3         1 ZOY      -0.074400
     11 C23        127.4800    -6.3780    13.4840 c3         1 ZOY      -0.070400
     12 C24        128.5070    -5.5190    14.2580 c3         1 ZOY      -0.032100
     13 C25        129.9540    -5.8570    13.9160 ca         1 ZOY      -0.074300
     14 C26        130.7320    -4.9690    13.1450 ca         1 ZOY      -0.109000
     15 C27        132.0640    -5.2860    12.8280 ca         1 ZOY      -0.109500
     16 C28        132.6280    -6.4910    13.2790 ca         1 ZOY      -0.114000
     17 C29        131.8580    -7.3790    14.0490 ca         1 ZOY      -0.109500
     18 C3         117.6440    -3.9190    11.0730 c3         1 ZOY      -0.095400
     19 C30        130.5260    -7.0630    14.3660 ca         1 ZOY      -0.109000
     20 C4         118.9840    -4.2780    10.4000 c3         1 ZOY       0.103000
     21 C5         120.1020    -5.8770    11.9940 c          1 ZOY       0.598100
     22 C6         115.4540    -0.5890    11.0830 c          1 ZOY       0.561100
     23 N1         119.4700    -5.5990    10.8020 ns         1 ZOY      -0.508900
     24 N2         116.3140     0.3200    11.6000 nt         1 ZOY      -0.606000
     25 O1         120.3150    -5.0180    12.8390 o          1 ZOY      -0.607100
     26 O2         114.4740    -0.2070    10.4620 o          1 ZOY      -0.613100
     27 H1         113.8250    -2.7840    11.4920 hn         1 ZOY       0.408500
     28 H8         114.4200    -2.9260    10.0110 hn         1 ZOY       0.408500
     29 H          115.9510    -2.1870    12.4260 h1         1 ZOY       0.067700
     30 H5         120.1700    -7.6510    13.2020 hc         1 ZOY       0.054700
     31 H3         119.9870    -7.9770    11.4520 hc         1 ZOY       0.054700
     32 H30        122.2290    -8.6260    12.3320 hc         1 ZOY       0.050700
     33 H31        122.5180    -6.9690    12.8510 hc         1 ZOY       0.050700
     34 H32        122.4460    -6.1910    10.4650 hc         1 ZOY       0.040200
     35 H33        122.0320    -7.8170     9.9370 hc         1 ZOY       0.040200
     36 H34        124.2520    -8.6590    10.7450 hc         1 ZOY       0.035200
     37 H35        124.3690    -7.4480     9.4750 hc         1 ZOY       0.035200
     38 H9         117.8850    -1.7870    10.8700 hc         1 ZOY       0.043700
     39 H10        116.9700    -2.5110     9.5580 hc         1 ZOY       0.043700
     40 H36        124.8600    -5.6830    11.2170 hc         1 ZOY       0.041700
     41 H37        124.8140    -6.9310    12.4640 hc         1 ZOY       0.041700
     42 H39        126.7360    -8.1120    11.3830 hc         1 ZOY       0.036200
     43 H38        126.7470    -6.9270    10.0840 hc         1 ZOY       0.036200
     44 H40        128.5390    -6.3850    11.5910 hc         1 ZOY       0.041200
     45 H41        127.3290    -5.1160    11.7190 hc         1 ZOY       0.041200
     46 H42        126.4800    -6.1290    13.8580 hc         1 ZOY       0.040200
     47 H43        127.6480    -7.4380    13.7140 hc         1 ZOY       0.040200
     48 H44        128.3020    -4.4590    14.0650 hc         1 ZOY       0.046200
     49 H45        128.3440    -5.6640    15.3330 hc         1 ZOY       0.046200
     50 H46        130.3030    -4.0350    12.7880 ha         1 ZOY       0.109500
     51 H47        132.6590    -4.5970    12.2310 ha         1 ZOY       0.110000
     52 H48        133.6590    -6.7360    13.0330 ha         1 ZOY       0.111000
     53 H49        132.2940    -8.3130    14.3990 ha         1 ZOY       0.110000
     54 H12        116.9070    -4.6920    10.8230 hc         1 ZOY       0.058700
     55 H11        117.7700    -3.9370    12.1630 hc         1 ZOY       0.058700
     56 H50        129.9370    -7.7560    14.9620 ha         1 ZOY       0.109500
     57 H13        119.7420    -3.5250    10.6550 h1         1 ZOY       0.049700
     58 H14        118.8580    -4.2720     9.3090 h1         1 ZOY       0.049700
     59 H15        119.3330    -6.3780    10.1690 hn         1 ZOY       0.310500
     60 H17        116.1350     1.3030    11.4600 hn         1 ZOY       0.314500
     61 H16        117.1230     0.0170    12.1230 hn         1 ZOY       0.314500
@<TRIPOS>BOND
     1     1     2 1   
     2     1    27 1   
     3     1    28 1   
     4     2     7 1   
     5     2    22 1   
     6     2    29 1   
     7     3     4 1   
     8     3    21 1   
     9     3    30 1   
    10     3    31 1   
    11     4     5 1   
    12     4    32 1   
    13     4    33 1   
    14     5     6 1   
    15     5    34 1   
    16     5    35 1   
    17     6     8 1   
    18     6    36 1   
    19     6    37 1   
    20     7    18 1   
    21     7    38 1   
    22     7    39 1   
    23     8     9 1   
    24     8    40 1   
    25     8    41 1   
    26     9    10 1   
    27     9    42 1   
    28     9    43 1   
    29    10    11 1   
    30    10    44 1   
    31    10    45 1   
    32    11    12 1   
    33    11    46 1   
    34    11    47 1   
    35    12    13 1   
    36    12    48 1   
    37    12    49 1   
    38    13    14 ar  
    39    13    19 ar  
    40    14    15 ar  
    41    14    50 1   
    42    15    16 ar  
    43    15    51 1   
    44    16    17 ar  
    45    16    52 1   
    46    17    19 ar  
    47    17    53 1   
    48    18    20 1   
    49    18    54 1   
    50    18    55 1   
    51    19    56 1   
    52    20    23 1   
    53    20    57 1   
    54    20    58 1   
    55    21    23 1   
    56    21    25 2   
    57    22    24 1   
    58    22    26 2   
    59    23    59 1   
    60    24    60 1   
    61    24    61 1   
@<TRIPOS>SUBSTRUCTURE
     1 ZOY         1 TEMP              0 ****  ****    0 ROOT
