@<TRIPOS>MOLECULE
ZP2
   32    33     1     0     0
SMALL
No Charge or Current Charge


@<TRIPOS>ATOM
      1 O22          2.9990    27.2160     1.6960 o          1 ZP2      -0.406000
      2 O17          0.4440    30.2700     0.4360 oh         1 ZP2      -0.491100
      3 C11         -0.4400    26.2660    -0.4810 ca         1 ZP2      -0.184600
      4 C02          0.2520    21.3870     0.4890 ca         1 ZP2       0.165100
      5 C03          0.3130    21.6100     1.8710 ca         1 ZP2      -0.236000
      6 C04          0.0160    22.8820     2.3780 ca         1 ZP2       0.210000
      7 C06         -0.3350    23.9320     1.5160 ca         1 ZP2      -0.163000
      8 C07         -0.3830    23.7240     0.1170 ca         1 ZP2      -0.107600
      9 C08         -0.0980    22.4320    -0.3810 ca         1 ZP2      -0.116000
     10 C09         -0.7730    24.8340    -0.8380 c          1 ZP2       0.598300
     11 C12         -1.2960    27.3060    -0.8920 ca         1 ZP2      -0.090000
     12 C13         -0.9960    28.6490    -0.5790 ca         1 ZP2       0.080100
     13 C15         -3.0470    29.4790    -1.7050 c3         1 ZP2       0.141900
     14 C16          0.1830    28.9570     0.1460 ca         1 ZP2       0.237100
     15 C18          1.0650    27.9190     0.5510 ca         1 ZP2      -0.292200
     16 C19          0.7410    26.5790     0.2230 ca         1 ZP2      -0.006000
     17 N20          2.3330    28.1840     1.3130 no         1 ZP2       0.707200
     18 O01          0.5310    20.1530    -0.0160 oh         1 ZP2      -0.524100
     19 O10         -1.3520    24.5780    -1.8880 o          1 ZP2      -0.505100
     20 O21          2.6560    29.3590     1.5310 o          1 ZP2      -0.406000
     21 H1           1.3090    30.3010     0.9060 ho         1 ZP2       0.519000
     22 H2           0.5810    20.8100     2.5550 ha         1 ZP2       0.136000
     23 H3          -0.5810    24.9010     1.9440 ha         1 ZP2       0.141000
     24 H4          -0.1410    22.2370    -1.4510 ha         1 ZP2       0.150000
     25 H5          -2.1960    27.0520    -1.4470 ha         1 ZP2       0.147000
     26 H6          -3.5430    30.4380    -1.9000 h1         1 ZP2       0.048700
     27 H7          -2.8400    29.0020    -2.6710 h1         1 ZP2       0.048700
     28 H8          -3.7440    28.8470    -1.1390 h1         1 ZP2       0.048700
     29 H9           1.4160    25.7690     0.5010 ha         1 ZP2       0.160000
     30 H10          0.7520    19.5550     0.7300 ho         1 ZP2       0.474000
     31 O14         -1.8300    29.6890    -0.9660 os         1 ZP2      -0.314100
     32 F05          0.0600    23.0970     3.7110 f          1 ZP2      -0.171000
@<TRIPOS>BOND
     1     1    17 1   
     2     2    14 1   
     3     2    21 1   
     4     3    10 1   
     5     3    11 ar  
     6     3    16 ar  
     7     4     5 ar  
     8     4     9 ar  
     9     4    18 1   
    10     5     6 ar  
    11     5    22 1   
    12     6     7 ar  
    13     6    32 1   
    14     7     8 ar  
    15     7    23 1   
    16     8     9 ar  
    17     8    10 1   
    18     9    24 1   
    19    10    19 2   
    20    11    12 ar  
    21    11    25 1   
    22    12    14 ar  
    23    12    31 1   
    24    13    26 1   
    25    13    27 1   
    26    13    28 1   
    27    13    31 1   
    28    14    15 ar  
    29    15    16 ar  
    30    15    17 1   
    31    16    29 1   
    32    17    20 1   
    33    18    30 1   
@<TRIPOS>SUBSTRUCTURE
     1 ZP2         1 TEMP              0 ****  ****    0 ROOT
