@<TRIPOS>MOLECULE
ZP2
   32    33     1     0     0
SMALL
abcg2


@<TRIPOS>ATOM
      1 O22          2.9660    27.2770     1.5600 o          1 ZP2      -0.406000
      2 O17          0.4210    30.2320     0.2760 oh         1 ZP2      -0.491100
      3 C11         -0.4540    26.2540    -0.3710 ca         1 ZP2      -0.184600
      4 C02          0.2810    21.4490     0.4600 ca         1 ZP2       0.165100
      5 C03          0.2880    21.6100     1.8450 ca         1 ZP2      -0.236000
      6 C04         -0.0450    22.8440     2.3660 ca         1 ZP2       0.210000
      7 C06         -0.3720    23.9300     1.5810 ca         1 ZP2      -0.163000
      8 C07         -0.3760    23.7500     0.1990 ca         1 ZP2      -0.107600
      9 C08         -0.0650    22.5180    -0.3620 ca         1 ZP2      -0.116000
     10 C09         -0.8090    24.8530    -0.7080 c          1 ZP2       0.598300
     11 C12         -1.2870    27.2850    -0.8430 ca         1 ZP2      -0.090000
     12 C13         -0.9890    28.6040    -0.6000 ca         1 ZP2       0.080100
     13 C15         -2.9260    29.4110    -1.6850 c3         1 ZP2       0.141900
     14 C16          0.2010    28.9460     0.0980 ca         1 ZP2       0.237100
     15 C18          1.0280    27.9010     0.5300 ca         1 ZP2      -0.292200
     16 C19          0.7000    26.5610     0.3100 ca         1 ZP2      -0.006000
     17 N20          2.2570    28.1880     1.2230 no         1 ZP2       0.707200
     18 O01          0.5910    20.2850    -0.1290 oh         1 ZP2      -0.524100
     19 O10         -1.4530    24.6070    -1.7060 o          1 ZP2      -0.505100
     20 O21          2.5360    29.3590     1.4430 o          1 ZP2      -0.406000
     21 H1           1.2610    30.3410     0.7640 ho         1 ZP2       0.519000
     22 H2           0.5440    20.7900     2.5060 ha         1 ZP2       0.136000
     23 H3          -0.6420    24.8720     2.0390 ha         1 ZP2       0.141000
     24 H4          -0.0780    22.3830    -1.4360 ha         1 ZP2       0.150000
     25 H5          -2.1830    27.0180    -1.3870 ha         1 ZP2       0.147000
     26 H6          -3.3660    30.3850    -1.8830 h1         1 ZP2       0.048700
     27 H7          -2.7330    28.9090    -2.6360 h1         1 ZP2       0.048700
     28 H8          -3.6320    28.8140    -1.1020 h1         1 ZP2       0.048700
     29 H9           1.3670    25.7840     0.6530 ha         1 ZP2       0.160000
     30 H10          0.8070    19.6100     0.5250 ho         1 ZP2       0.474000
     31 O14         -1.7290    29.6540    -0.9680 os         1 ZP2      -0.314100
     32 F05         -0.0530    22.9870     3.6980 f          1 ZP2      -0.171000
@<TRIPOS>BOND
     1     1    17 1   
     2     2    14 1   
     3     2    21 1   
     4     3    10 1   
     5     3    11 ar  
     6     3    16 ar  
     7     4     5 ar  
     8     4     9 ar  
     9     4    18 1   
    10     5     6 ar  
    11     5    22 1   
    12     6     7 ar  
    13     6    32 1   
    14     7     8 ar  
    15     7    23 1   
    16     8     9 ar  
    17     8    10 1   
    18     9    24 1   
    19    10    19 2   
    20    11    12 ar  
    21    11    25 1   
    22    12    14 ar  
    23    12    31 1   
    24    13    26 1   
    25    13    27 1   
    26    13    28 1   
    27    13    31 1   
    28    14    15 ar  
    29    15    16 ar  
    30    15    17 1   
    31    16    29 1   
    32    17    20 1   
    33    18    30 1   
@<TRIPOS>SUBSTRUCTURE
     1 ZP2         1 TEMP              0 ****  ****    0 ROOT
