@<TRIPOS>MOLECULE
ZP4
   77    81     1     0     0
SMALL
No Charge or Current Charge


@<TRIPOS>ATOM
      1 O5           2.5210     0.3440    -3.4750 os         1 ZP4      -0.604400
      2 N3           3.7770     4.6040    -1.7630 n2         1 ZP4      -0.401200
      3 N3A          4.7640     5.3170    -1.9970 n1         1 ZP4       0.236000
      4 N3B          5.6490     6.0260    -2.0810 n1         1 ZP4      -0.193000
      5 N1           1.6940     2.2610     1.3000 n          1 ZP4      -0.327000
      6 C6           0.9440     3.0510     2.1710 cc         1 ZP4      -0.012400
      7 C2           1.8760     0.8810     1.5390 c          1 ZP4       0.604000
      8 O2           2.6090     0.1630     0.8830 o          1 ZP4      -0.466000
      9 N2           1.2240     0.3790     2.6130 ns         1 ZP4      -0.451500
     10 C4           0.4690     1.0290     3.5290 c          1 ZP4       0.594200
     11 O4          -0.0270     0.4440     4.4770 o          1 ZP4      -0.549000
     12 C5           0.3450     2.4890     3.2770 cd         1 ZP4      -0.295400
     13 C5A         -0.4800     3.2760     4.2660 c3         1 ZP4      -0.003900
     14 C7           3.7110     3.0430     0.1210 c5         1 ZP4      -0.147400
     15 C10          3.5300     0.9360    -2.6450 c3         1 ZP4       0.247600
     16 C9           2.9740     2.2810    -2.0930 c5         1 ZP4       0.180300
     17 O6           1.9660     2.0010    -1.0910 os         1 ZP4      -0.391000
     18 C1           2.1790     2.8590     0.0310 c5         1 ZP4       0.368700
     19 C3           4.0470     3.1890    -1.3880 c5         1 ZP4       0.119500
     20 PA           2.0740    -1.1920    -3.2840 p5         1 ZP4       1.506800
     21 O1A          3.2780    -2.0700    -3.3900 o          1 ZP4      -0.862500
     22 O2A          1.0470    -1.4780    -4.3320 o          1 ZP4      -0.862500
     23 O3A          1.4480    -1.0550    -1.8520 os         1 ZP4      -0.715800
     24 PB           1.2200    -2.4380    -1.1320 p5         1 ZP4       1.539800
     25 O1B          2.4860    -2.9360    -0.5110 o          1 ZP4      -0.882000
     26 O2B          0.5610    -3.4540    -2.0100 o          1 ZP4      -0.882000
     27 O3B          0.1890    -1.8620    -0.0900 os         1 ZP4      -0.705800
     28 PG           0.0410    -2.7130     1.2230 p5         1 ZP4       1.536800
     29 O1G         -0.0780    -4.1800     0.9650 o          1 ZP4      -0.868500
     30 O2G          1.0770    -2.3340     2.2340 o          1 ZP4      -0.868500
     31 O3G         -1.3330    -2.0510     1.6030 os         1 ZP4      -0.711800
     32 PD          -2.1730    -2.8350     2.6770 p5         1 ZP4       1.451800
     33 O1D         -3.2290    -3.6910     2.0560 o          1 ZP4      -0.857000
     34 O2D         -1.3820    -3.5750     3.7050 o          1 ZP4      -0.857000
     35 O51         -2.8440    -1.5520     3.3820 os         1 ZP4      -0.569400
     36 C51         -3.7820    -0.7460     2.6620 c3         1 ZP4       0.246600
     37 C41         -3.3260     0.7430     2.7260 c5         1 ZP4       0.151300
     38 O41         -2.2250     0.9850     1.8020 os         1 ZP4      -0.390000
     39 C11         -2.7010     1.7480     0.6730 c5         1 ZP4       0.336300
     40 C21         -4.2650     1.6870     0.7450 c5         1 ZP4       0.053300
     41 O21         -4.9360     2.7830     0.0900 oh         1 ZP4      -0.703000
     42 C31         -4.4510     1.7390     2.2850 c5         1 ZP4       0.089300
     43 O31         -4.2550     3.0730     2.7700 oh         1 ZP4      -0.720000
     44 N9R         -2.0740     1.2660    -0.5520 na         1 ZP4      -0.299300
     45 C8R         -2.2050    -0.0280    -1.0670 cc         1 ZP4       0.445700
     46 N7R         -1.7290    -0.1080    -2.3240 nd         1 ZP4      -0.471100
     47 C5R         -1.2520     1.1810    -2.5700 ca         1 ZP4      -0.028600
     48 C6R         -0.6310     1.7040    -3.7260 ca         1 ZP4       0.433900
     49 N6R         -0.3410     0.9670    -4.8320 nv         1 ZP4      -1.039900
     50 N1R         -0.2710     2.9970    -3.7920 nb         1 ZP4      -0.356000
     51 C2R         -0.5260     3.7440    -2.6910 ca         1 ZP4       0.130900
     52 N3R         -1.1070     3.3250    -1.5420 nb         1 ZP4      -0.249000
     53 C4R         -1.4600     2.0240    -1.5070 ca         1 ZP4       0.087500
     54 H6           0.8920     4.0960     1.8820 h4         1 ZP4       0.160000
     55 HN3          1.2720    -0.6340     2.7030 hn         1 ZP4       0.443500
     56 H5A         -0.0530     3.2140     5.2740 hc         1 ZP4       0.020033
     57 H5AA        -0.5280     4.3370     3.9910 hc         1 ZP4       0.020033
     58 H5AB        -1.5090     2.9010     4.3110 hc         1 ZP4       0.020033
     59 H2           4.0000     3.9130     0.7220 hc         1 ZP4       0.068700
     60 H2'A         4.2150     2.1700     0.5480 hc         1 ZP4       0.068700
     61 H5           3.8120     0.2840    -1.8080 h1         1 ZP4       0.026700
     62 H5'A         4.4300     1.1380    -3.2390 h1         1 ZP4       0.026700
     63 H4           2.5040     2.8170    -2.9280 h1         1 ZP4       0.073700
     64 H1           1.6660     3.8150    -0.1250 h2         1 ZP4       0.020700
     65 H3           5.0810     2.8990    -1.6250 h1         1 ZP4       0.064700
     66 H51         -3.8770    -1.0600     1.6150 h1         1 ZP4       0.002700
     67 H51A        -4.7710    -0.8350     3.1290 h1         1 ZP4       0.002700
     68 H41         -2.9930     0.9540     3.7510 h1         1 ZP4       0.094700
     69 H11         -2.3740     2.7880     0.7970 h2         1 ZP4       0.078700
     70 H21         -4.6220     0.7280     0.3430 h1         1 ZP4       0.072700
     71 HO21        -5.8550     2.4910    -0.1170 ho         1 ZP4       0.480000
     72 H31         -5.4460     1.3770     2.5800 h1         1 ZP4       0.029700
     73 HO31        -4.5360     3.6470     2.0170 ho         1 ZP4       0.489000
     74 H8R         -2.6660    -0.8330    -0.5060 h5         1 ZP4       0.132800
     75 HN6R        -0.0470     0.0020    -4.6260 hn         1 ZP4       0.501500
     76 HN6A         0.2660     1.4180    -5.5050 hn         1 ZP4       0.501500
     77 H2R         -0.2340     4.7920    -2.7360 h5         1 ZP4      -0.013900
@<TRIPOS>BOND
     1     1    15 1   
     2     1    20 1   
     3     2     3 1   
     4     2    19 1   
     5     3     4 3   
     6     5     6 1   
     7     5     7 1   
     8     5    18 1   
     9     6    12 2   
    10     6    54 1   
    11     7     8 2   
    12     7     9 1   
    13     9    10 1   
    14     9    55 1   
    15    10    11 2   
    16    10    12 1   
    17    12    13 1   
    18    13    56 1   
    19    13    57 1   
    20    13    58 1   
    21    14    18 1   
    22    14    19 1   
    23    14    59 1   
    24    14    60 1   
    25    15    16 1   
    26    15    61 1   
    27    15    62 1   
    28    16    17 1   
    29    16    19 1   
    30    16    63 1   
    31    17    18 1   
    32    18    64 1   
    33    19    65 1   
    34    20    21 1   
    35    20    22 1   
    36    20    23 1   
    37    23    24 1   
    38    24    25 1   
    39    24    26 1   
    40    24    27 1   
    41    27    28 1   
    42    28    29 1   
    43    28    30 1   
    44    28    31 1   
    45    31    32 1   
    46    32    33 1   
    47    32    34 1   
    48    32    35 1   
    49    35    36 1   
    50    36    37 1   
    51    36    66 1   
    52    36    67 1   
    53    37    38 1   
    54    37    42 1   
    55    37    68 1   
    56    38    39 1   
    57    39    40 1   
    58    39    44 1   
    59    39    69 1   
    60    40    41 1   
    61    40    42 1   
    62    40    70 1   
    63    41    71 1   
    64    42    43 1   
    65    42    72 1   
    66    43    73 1   
    67    44    45 1   
    68    44    53 1   
    69    45    46 2   
    70    45    74 1   
    71    46    47 1   
    72    47    48 ar  
    73    47    53 ar  
    74    48    49 1   
    75    48    50 ar  
    76    49    75 1   
    77    49    76 1   
    78    50    51 ar  
    79    51    52 ar  
    80    51    77 1   
    81    52    53 ar  
@<TRIPOS>SUBSTRUCTURE
     1 ZP4         1 TEMP              0 ****  ****    0 ROOT
