@<TRIPOS>MOLECULE
ZP4
   77    81     1     0     0
SMALL
bcc


@<TRIPOS>ATOM
      1 O5           2.2360     0.3820    -3.2690 os         1 ZP4      -0.581200
      2 N3           4.0000     4.5350    -1.9390 n2         1 ZP4      -0.401200
      3 N3A          4.8790     5.2640    -1.5190 n1         1 ZP4       0.236000
      4 N3B          5.6470     6.0130    -1.1810 n1         1 ZP4      -0.193000
      5 N1           1.6060     2.2540     1.0800 n          1 ZP4      -0.394000
      6 C6           0.7820     3.0200     1.8650 cc         1 ZP4       0.037600
      7 C2           1.7870     0.9060     1.3650 c          1 ZP4       0.813500
      8 O2           2.5580     0.1910     0.7670 o          1 ZP4      -0.541500
      9 N2           1.0440     0.4380     2.4240 ns         1 ZP4      -0.585500
     10 C4           0.2750     1.1750     3.3060 c          1 ZP4       0.736700
     11 O4          -0.2040     0.6610     4.3020 o          1 ZP4      -0.624500
     12 C5           0.1330     2.5800     2.9510 cd         1 ZP4      -0.295400
     13 C5A         -0.7190     3.4780     3.7900 c3         1 ZP4      -0.003900
     14 C7           3.7920     2.9290    -0.0460 c5         1 ZP4      -0.147400
     15 C10          3.3280     0.9770    -2.6150 c3         1 ZP4       0.224400
     16 C9           2.9260     2.3780    -2.2030 c5         1 ZP4       0.157100
     17 O6           1.8640     2.3710    -1.2610 os         1 ZP4      -0.344600
     18 C1           2.2640     2.9210    -0.0400 c5         1 ZP4       0.345500
     19 C3           4.0830     3.1230    -1.5310 c5         1 ZP4       0.119500
     20 PA           2.0860    -1.2280    -3.4420 p5         1 ZP4       1.506800
     21 O1A          3.3710    -1.8020    -3.9610 o          1 ZP4      -0.862500
     22 O2A          0.8090    -1.3990    -4.2180 o          1 ZP4      -0.862500
     23 O3A          1.9460    -1.6060    -1.8640 os         1 ZP4      -0.715800
     24 PB           1.6070    -3.0330    -1.1300 p5         1 ZP4       1.539800
     25 O1B          2.8290    -3.4710    -0.3830 o          1 ZP4      -0.882000
     26 O2B          0.9330    -3.9780    -2.0730 o          1 ZP4      -0.882000
     27 O3B          0.5090    -2.4080    -0.0720 os         1 ZP4      -0.705800
     28 PG           0.2230    -3.0710     1.3970 p5         1 ZP4       1.536800
     29 O1G          0.1710    -4.5620     1.2990 o          1 ZP4      -0.868500
     30 O2G          1.0870    -2.4040     2.4340 o          1 ZP4      -0.868500
     31 O3G         -1.3110    -2.4710     1.5100 os         1 ZP4      -0.711800
     32 PD          -2.3640    -2.9430     2.6790 p5         1 ZP4       1.451800
     33 O1D         -3.5390    -3.5680     1.9850 o          1 ZP4      -0.857000
     34 O2D         -1.6520    -3.6380     3.7940 o          1 ZP4      -0.857000
     35 O51         -2.8020    -1.4910     3.2730 os         1 ZP4      -0.546200
     36 C51         -3.8020    -0.7310     2.6620 c3         1 ZP4       0.223400
     37 C41         -3.3970     0.7240     2.7560 c5         1 ZP4       0.128100
     38 O41         -2.2520     0.9520     1.9330 os         1 ZP4      -0.343600
     39 C11         -2.5420     1.8210     0.8950 c5         1 ZP4       0.283800
     40 C21         -4.0710     1.8220     0.7810 c5         1 ZP4       0.030100
     41 O21         -4.5180     2.9830     0.1480 oh         1 ZP4      -0.580800
     42 C31         -4.4710     1.6850     2.2590 c5         1 ZP4       0.066100
     43 O31         -4.3460     2.9070     2.9380 oh         1 ZP4      -0.597800
     44 N9R         -1.8590     1.3620    -0.2880 na         1 ZP4      -0.270000
     45 C8R         -1.8050     0.0690    -0.7460 cc         1 ZP4       0.445700
     46 N7R         -1.3740    -0.0300    -1.9640 nd         1 ZP4      -0.471100
     47 C5R         -1.1230     1.2600    -2.3440 ca         1 ZP4      -0.159200
     48 C6R         -0.6790     1.8220    -3.5490 ca         1 ZP4       0.762200
     49 N6R         -0.4360     1.0780    -4.6480 nv         1 ZP4      -0.929500
     50 N1R         -0.5540     3.1540    -3.6060 nb         1 ZP4      -0.882000
     51 C2R         -0.8450     3.8800    -2.5270 ca         1 ZP4       0.656900
     52 N3R         -1.2890     3.4700    -1.3530 nb         1 ZP4      -0.775000
     53 C4R         -1.4190     2.1460    -1.3160 ca         1 ZP4       0.415800
     54 H6           0.6980     4.0560     1.5620 h4         1 ZP4       0.110000
     55 HN3          1.0730    -0.5770     2.5490 hn         1 ZP4       0.443500
     56 H5A         -0.4630     3.3880     4.8460 hc         1 ZP4       0.020033
     57 H5AA        -0.5920     4.5200     3.5000 hc         1 ZP4       0.020033
     58 H5AB        -1.7770     3.2360     3.6940 hc         1 ZP4       0.020033
     59 H2           4.1980     3.7210     0.5850 hc         1 ZP4       0.068700
     60 H2'A         4.2110     1.9840     0.2850 hc         1 ZP4       0.068700
     61 H5           3.6410     0.4030    -1.7420 h1         1 ZP4       0.026700
     62 H5'A         4.1870     1.0540    -3.2920 h1         1 ZP4       0.026700
     63 H4           2.5950     2.9240    -3.0930 h1         1 ZP4       0.073700
     64 H1           1.9180     3.9590     0.0330 h2         1 ZP4       0.020700
     65 H3           5.0540     2.7100    -1.8190 h1         1 ZP4       0.064700
     66 H51         -3.9760    -1.0140     1.6170 h1         1 ZP4       0.002700
     67 H51A        -4.7560    -0.8710     3.1840 h1         1 ZP4       0.002700
     68 H41         -3.1300     0.9490     3.7910 h1         1 ZP4       0.094700
     69 H11         -2.1780     2.8360     1.0880 h2         1 ZP4       0.078700
     70 H21         -4.3930     0.9180     0.2460 h1         1 ZP4       0.072700
     71 HO21        -5.4130     2.8340    -0.1730 ho         1 ZP4       0.381000
     72 H31         -5.4820     1.2700     2.3780 h1         1 ZP4       0.029700
     73 HO31        -4.7560     3.5920     2.3970 ho         1 ZP4       0.390000
     74 H8R         -2.0610    -0.7630    -0.1110 h5         1 ZP4       0.132800
     75 HN6R        -0.1090     0.1190    -4.4940 hn         1 ZP4       0.446300
     76 HN6A         0.0540     1.5620    -5.3840 hn         1 ZP4       0.446300
     77 H2R         -0.7030     4.9510    -2.6350 h5         1 ZP4      -0.013900
@<TRIPOS>BOND
     1     1    15 1   
     2     1    20 1   
     3     2     3 1   
     4     2    19 1   
     5     3     4 3   
     6     5     6 1   
     7     5     7 1   
     8     5    18 1   
     9     6    12 2   
    10     6    54 1   
    11     7     8 2   
    12     7     9 1   
    13     9    10 1   
    14     9    55 1   
    15    10    11 2   
    16    10    12 1   
    17    12    13 1   
    18    13    56 1   
    19    13    57 1   
    20    13    58 1   
    21    14    18 1   
    22    14    19 1   
    23    14    59 1   
    24    14    60 1   
    25    15    16 1   
    26    15    61 1   
    27    15    62 1   
    28    16    17 1   
    29    16    19 1   
    30    16    63 1   
    31    17    18 1   
    32    18    64 1   
    33    19    65 1   
    34    20    21 1   
    35    20    22 1   
    36    20    23 1   
    37    23    24 1   
    38    24    25 1   
    39    24    26 1   
    40    24    27 1   
    41    27    28 1   
    42    28    29 1   
    43    28    30 1   
    44    28    31 1   
    45    31    32 1   
    46    32    33 1   
    47    32    34 1   
    48    32    35 1   
    49    35    36 1   
    50    36    37 1   
    51    36    66 1   
    52    36    67 1   
    53    37    38 1   
    54    37    42 1   
    55    37    68 1   
    56    38    39 1   
    57    39    40 1   
    58    39    44 1   
    59    39    69 1   
    60    40    41 1   
    61    40    42 1   
    62    40    70 1   
    63    41    71 1   
    64    42    43 1   
    65    42    72 1   
    66    43    73 1   
    67    44    45 1   
    68    44    53 1   
    69    45    46 2   
    70    45    74 1   
    71    46    47 1   
    72    47    48 ar  
    73    47    53 ar  
    74    48    49 1   
    75    48    50 ar  
    76    49    75 1   
    77    49    76 1   
    78    50    51 ar  
    79    51    52 ar  
    80    51    77 1   
    81    52    53 ar  
@<TRIPOS>SUBSTRUCTURE
     1 ZP4         1 TEMP              0 ****  ****    0 ROOT
