@<TRIPOS>MOLECULE
ZP5
   35    37     1     0     0
SMALL
No Charge or Current Charge


@<TRIPOS>ATOM
      1 N1         -15.9490    17.2720    26.4460 ns         1 ZP5      -0.493400
      2 N3         -17.5330    15.5760    26.8580 n          1 ZP5      -0.432800
      3 C4         -13.7850    19.8500    27.5450 cc         1 ZP5       0.184900
      4 C5         -18.5420    14.9460    27.7600 c6         1 ZP5       0.093000
      5 C6         -19.1410    13.6130    27.2570 c6         1 ZP5       0.085000
      6 C7         -18.4850    14.1130    24.9520 c6         1 ZP5       0.085000
      7 C8         -17.8150    15.4400    25.3940 c6         1 ZP5       0.093000
      8 C10        -21.7820    12.4990    26.1700 cc         1 ZP5       0.059500
      9 C13        -23.3490    12.6680    27.7350 cc         1 ZP5       0.147900
     10 C1         -16.6900    16.5840    27.3740 c          1 ZP5       0.677100
     11 C11        -22.7760    11.6100    25.8490 cd         1 ZP5      -0.101000
     12 C12        -23.7630    11.7110    26.8500 cd         1 ZP5      -0.195000
     13 C2         -15.0530    18.2940    26.6170 cd         1 ZP5       0.422900
     14 C3         -14.6940    18.8850    27.8420 cd         1 ZP5      -0.236000
     15 N2         -14.4250    18.8360    25.5940 nc         1 ZP5      -0.440300
     16 N4         -19.5890    13.6630    25.8380 n          1 ZP5      -0.409800
     17 O1         -16.6320    16.8130    28.5700 o          1 ZP5      -0.621100
     18 O2         -13.5890    19.8570    26.1850 os         1 ZP5      -0.083700
     19 O3         -20.4350    12.2720    24.2160 o          1 ZP5      -0.591100
     20 O4         -22.1350    13.1750    27.3250 os         1 ZP5      -0.249000
     21 H1         -16.0970    16.9650    25.5000 hn         1 ZP5       0.335500
     22 H3         -13.2340    20.5570    28.1500 h4         1 ZP5       0.056100
     23 H5         -18.0950    14.7660    28.7480 h1         1 ZP5       0.063700
     24 H4         -19.3640    15.6610    27.9070 h1         1 ZP5       0.063700
     25 H7         -18.3610    12.8430    27.3360 h1         1 ZP5       0.067950
     26 H6         -19.9330    13.3040    27.9450 h1         1 ZP5       0.067950
     27 H8         -17.7190    13.3250    24.9260 h1         1 ZP5       0.067950
     28 H9         -18.8540    14.2370    23.9240 h1         1 ZP5       0.067950
     29 H11        -16.8860    15.5410    24.8160 h1         1 ZP5       0.063700
     30 H10        -18.4730    16.2700    25.0980 h1         1 ZP5       0.063700
     31 H14        -23.7910    13.0690    28.6380 h4         1 ZP5       0.056100
     32 H12        -22.7940    10.9560    24.9820 ha         1 ZP5       0.158000
     33 H13        -24.6880    11.1470    26.9100 ha         1 ZP5       0.149000
     34 H2         -15.0500    18.6420    28.8330 ha         1 ZP5       0.178000
     35 C9         -20.5700    12.7690    25.3300 c          1 ZP5       0.544600
@<TRIPOS>BOND
     1     1    10 1   
     2     1    13 1   
     3     1    21 1   
     4     2     4 1   
     5     2     7 1   
     6     2    10 1   
     7     3    14 2   
     8     3    18 1   
     9     3    22 1   
    10     4     5 1   
    11     4    23 1   
    12     4    24 1   
    13     5    16 1   
    14     5    25 1   
    15     5    26 1   
    16     6     7 1   
    17     6    16 1   
    18     6    27 1   
    19     6    28 1   
    20     7    29 1   
    21     7    30 1   
    22     8    11 2   
    23     8    20 1   
    24     8    35 1   
    25     9    12 2   
    26     9    20 1   
    27     9    31 1   
    28    10    17 2   
    29    11    12 1   
    30    11    32 1   
    31    12    33 1   
    32    13    14 1   
    33    13    15 2   
    34    14    34 1   
    35    15    18 1   
    36    16    35 1   
    37    19    35 2   
@<TRIPOS>SUBSTRUCTURE
     1 ZP5         1 TEMP              0 ****  ****    0 ROOT
