@<TRIPOS>MOLECULE
ZP5
   35    37     1     0     0
SMALL
abcg2


@<TRIPOS>ATOM
      1 N1         -16.1800    17.3640    26.3480 ns         1 ZP5      -0.493400
      2 N3         -17.9690    15.9110    26.6970 n          1 ZP5      -0.432800
      3 C4         -13.4640    19.2020    27.6730 cc         1 ZP5       0.184900
      4 C5         -18.9850    15.3320    27.5740 c6         1 ZP5       0.093000
      5 C6         -19.1680    13.8520    27.2720 c6         1 ZP5       0.085000
      6 C7         -18.4260    14.2030    24.9870 c6         1 ZP5       0.085000
      7 C8         -18.2230    15.6890    25.2760 c6         1 ZP5       0.093000
      8 C10        -21.5730    12.4550    26.1550 cc         1 ZP5       0.059500
      9 C13        -23.1450    12.6670    27.6780 cc         1 ZP5       0.147900
     10 C1         -16.9980    16.6940    27.2440 c          1 ZP5       0.677100
     11 C11        -22.3870    11.3670    26.0350 cd         1 ZP5      -0.101000
     12 C12        -23.4020    11.5010    27.0280 cd         1 ZP5      -0.195000
     13 C2         -15.0990    18.1460    26.6900 cd         1 ZP5       0.422900
     14 C3         -14.4830    18.3610    27.9600 cd         1 ZP5      -0.236000
     15 N2         -14.4880    18.8120    25.7310 nc         1 ZP5      -0.440300
     16 N4         -19.4640    13.6610    25.8530 n          1 ZP5      -0.409800
     17 O1         -16.8410    16.8100    28.4580 o          1 ZP5      -0.621100
     18 O2         -13.4350    19.4910    26.3630 os         1 ZP5      -0.083700
     19 O3         -20.3700    12.4430    24.1630 o          1 ZP5      -0.591100
     20 O4         -22.0380    13.2620    27.1630 os         1 ZP5      -0.249000
     21 H1         -16.4070    17.3690    25.3670 hn         1 ZP5       0.335500
     22 H3         -12.7010    19.6650    28.2790 h4         1 ZP5       0.056100
     23 H5         -18.6720    15.4670    28.6030 h1         1 ZP5       0.063700
     24 H4         -19.9340    15.8560    27.4190 h1         1 ZP5       0.063700
     25 H7         -18.2390    13.3190    27.5010 h1         1 ZP5       0.067950
     26 H6         -19.9590    13.4430    27.8880 h1         1 ZP5       0.067950
     27 H8         -17.4880    13.6640    25.1540 h1         1 ZP5       0.067950
     28 H9         -18.7240    14.0690    23.9520 h1         1 ZP5       0.067950
     29 H11        -17.3910    16.0250    24.6660 h1         1 ZP5       0.063700
     30 H10        -19.1160    16.2460    24.9740 h1         1 ZP5       0.063700
     31 H14        -23.6310    13.1920    28.4830 h4         1 ZP5       0.056100
     32 H12        -22.2700    10.5690    25.3210 ha         1 ZP5       0.158000
     33 H13        -24.2140    10.8220    27.2290 ha         1 ZP5       0.149000
     34 H2         -14.7680    17.9510    28.9080 ha         1 ZP5       0.178000
     35 C9         -20.4170    12.8500    25.3290 c          1 ZP5       0.544600
@<TRIPOS>BOND
     1     1    10 1   
     2     1    13 1   
     3     1    21 1   
     4     2     4 1   
     5     2     7 1   
     6     2    10 1   
     7     3    14 2   
     8     3    18 1   
     9     3    22 1   
    10     4     5 1   
    11     4    23 1   
    12     4    24 1   
    13     5    16 1   
    14     5    25 1   
    15     5    26 1   
    16     6     7 1   
    17     6    16 1   
    18     6    27 1   
    19     6    28 1   
    20     7    29 1   
    21     7    30 1   
    22     8    11 2   
    23     8    20 1   
    24     8    35 1   
    25     9    12 2   
    26     9    20 1   
    27     9    31 1   
    28    10    17 2   
    29    11    12 1   
    30    11    32 1   
    31    12    33 1   
    32    13    14 1   
    33    13    15 2   
    34    14    34 1   
    35    15    18 1   
    36    16    35 1   
    37    19    35 2   
@<TRIPOS>SUBSTRUCTURE
     1 ZP5         1 TEMP              0 ****  ****    0 ROOT
