@<TRIPOS>MOLECULE
ZP6
   52    54     1     0     0
SMALL
bcc


@<TRIPOS>ATOM
      1 O5          12.2880    29.5640    -3.7390 o          1 ZP6      -0.824800
      2 C15         13.1360    29.1470    -4.5430 c          1 ZP6       0.928600
      3 O4          12.9950    28.9380    -5.7660 o          1 ZP6      -0.824800
      4 C14         14.5550    28.8890    -3.9800 c3         1 ZP6      -0.037300
      5 C16         15.4360    30.1460    -4.1420 c3         1 ZP6      -0.039100
      6 C17         14.9640    31.3320    -3.3520 ca         1 ZP6      -0.030300
      7 C22         14.3030    32.3910    -3.9660 ca         1 ZP6      -0.112000
      8 C21         13.8690    33.4860    -3.2290 ca         1 ZP6      -0.137000
      9 C20         14.0910    33.5360    -1.8590 ca         1 ZP6      -0.149000
     10 C19         14.7520    32.4850    -1.2350 ca         1 ZP6      -0.137000
     11 C18         15.1850    31.3960    -1.9770 ca         1 ZP6      -0.112000
     12 N2          15.1510    27.7890    -4.7050 ns         1 ZP6      -0.515900
     13 C13         16.1370    27.0180    -4.2480 c          1 ZP6       0.652100
     14 O3          16.6230    27.1080    -3.1260 o          1 ZP6      -0.656100
     15 C12         16.7030    25.9880    -5.2240 c5         1 ZP6       0.033700
     16 C11         18.0750    26.4390    -5.7420 c5         1 ZP6      -0.083400
     17 C10         17.7260    27.2330    -6.9950 c5         1 ZP6      -0.101400
     18 C9          16.5910    26.4280    -7.6150 c5         1 ZP6       0.117000
     19 N1          15.9380    25.8310    -6.4470 n          1 ZP6      -0.478800
     20 C8          14.8860    24.9890    -6.4950 c          1 ZP6       0.763100
     21 O2          14.4220    24.4090    -5.5360 o          1 ZP6      -0.573000
     22 O1          14.4020    24.8900    -7.7390 os         1 ZP6      -0.427900
     23 C7          13.3780    23.9240    -7.9620 c3         1 ZP6       0.204700
     24 C5          13.9130    22.5180    -7.9480 ca         1 ZP6      -0.110300
     25 C6          15.0760    22.1970    -8.6450 ca         1 ZP6      -0.105000
     26 C1          15.5520    20.8940    -8.6550 ca         1 ZP6      -0.136500
     27 C4          13.2360    21.5130    -7.2670 ca         1 ZP6      -0.105000
     28 C3          13.7050    20.2060    -7.2850 ca         1 ZP6      -0.136500
     29 C2          14.8670    19.8930    -7.9770 ca         1 ZP6      -0.129000
     30 H2          14.4930    28.6280    -2.9220 h1         1 ZP6       0.068700
     31 H3          16.4520    29.8880    -3.8330 hc         1 ZP6       0.034700
     32 H4          15.4820    30.3970    -5.2050 hc         1 ZP6       0.034700
     33 H5          14.1250    32.3590    -5.0350 ha         1 ZP6       0.131000
     34 H6          13.3590    34.3010    -3.7270 ha         1 ZP6       0.111000
     35 H7          13.7550    34.3890    -1.2840 ha         1 ZP6       0.107000
     36 H8          14.9340    32.5170    -0.1680 ha         1 ZP6       0.111000
     37 H9          15.7070    30.5840    -1.4830 ha         1 ZP6       0.131000
     38 H10         14.8020    27.6650    -5.6440 hn         1 ZP6       0.343500
     39 H11         16.7760    25.0420    -4.6840 h1         1 ZP6       0.088700
     40 H12         18.6640    25.5580    -6.0050 hc         1 ZP6       0.055200
     41 H13         18.6370    27.0060    -5.0030 hc         1 ZP6       0.055200
     42 H14         18.5670    27.3410    -7.6790 hc         1 ZP6       0.055700
     43 H15         17.3840    28.2360    -6.7300 hc         1 ZP6       0.055700
     44 H16         15.9020    27.0500    -8.1840 h1         1 ZP6       0.047200
     45 H17         16.9780    25.6500    -8.2780 h1         1 ZP6       0.047200
     46 H18         12.9830    24.1710    -8.9480 h1         1 ZP6       0.070200
     47 H19         12.5660    24.0380    -7.2420 h1         1 ZP6       0.070200
     48 H20         15.6180    22.9650    -9.1850 ha         1 ZP6       0.136500
     49 H21         16.4590    20.6580    -9.1970 ha         1 ZP6       0.124000
     50 H22         12.3360    21.7540    -6.7130 ha         1 ZP6       0.136500
     51 H23         13.1680    19.4340    -6.7490 ha         1 ZP6       0.124000
     52 H24         15.2370    18.8760    -7.9880 ha         1 ZP6       0.122000
@<TRIPOS>BOND
     1     1     2 1   
     2     2     3 1   
     3     2     4 1   
     4     4     5 1   
     5     4    12 1   
     6     4    30 1   
     7     5     6 1   
     8     5    31 1   
     9     5    32 1   
    10     6     7 ar  
    11     6    11 ar  
    12     7     8 ar  
    13     7    33 1   
    14     8     9 ar  
    15     8    34 1   
    16     9    10 ar  
    17     9    35 1   
    18    10    11 ar  
    19    10    36 1   
    20    11    37 1   
    21    12    13 1   
    22    12    38 1   
    23    13    14 2   
    24    13    15 1   
    25    15    16 1   
    26    15    19 1   
    27    15    39 1   
    28    16    17 1   
    29    16    40 1   
    30    16    41 1   
    31    17    18 1   
    32    17    42 1   
    33    17    43 1   
    34    18    19 1   
    35    18    44 1   
    36    18    45 1   
    37    19    20 1   
    38    20    21 2   
    39    20    22 1   
    40    22    23 1   
    41    23    24 1   
    42    23    46 1   
    43    23    47 1   
    44    24    25 ar  
    45    24    27 ar  
    46    25    26 ar  
    47    25    48 1   
    48    26    29 ar  
    49    26    49 1   
    50    27    28 ar  
    51    27    50 1   
    52    28    29 ar  
    53    28    51 1   
    54    29    52 1   
@<TRIPOS>SUBSTRUCTURE
     1 ZP6         1 TEMP              0 ****  ****    0 ROOT
