@<TRIPOS>MOLECULE
ZP6
   52    54     1     0     0
SMALL
No Charge or Current Charge


@<TRIPOS>ATOM
      1 O5          12.3030    28.8960    -3.9390 o          1 ZP6      -0.719500
      2 C15         13.2650    28.9690    -4.6910 c          1 ZP6       0.718000
      3 O4          13.1620    29.0000    -5.9110 o          1 ZP6      -0.719500
      4 C14         14.6910    28.8440    -4.0750 c3         1 ZP6      -0.037300
      5 C16         15.4850    30.1690    -4.1810 c3         1 ZP6      -0.039100
      6 C17         14.8560    31.2940    -3.3690 ca         1 ZP6      -0.030300
      7 C22         14.1360    32.3220    -4.0100 ca         1 ZP6      -0.094000
      8 C21         13.5570    33.3580    -3.2570 ca         1 ZP6      -0.119000
      9 C20         13.6940    33.3730    -1.8590 ca         1 ZP6      -0.131000
     10 C19         14.4110    32.3510    -1.2140 ca         1 ZP6      -0.119000
     11 C18         14.9900    31.3140    -1.9670 ca         1 ZP6      -0.094000
     12 N2          15.4230    27.7280    -4.7160 ns         1 ZP6      -0.448900
     13 C13         16.4960    27.0510    -4.1740 c          1 ZP6       0.585100
     14 O3          16.9240    27.2720    -3.0470 o          1 ZP6      -0.656100
     15 C12         17.0280    25.9710    -5.1800 c5         1 ZP6       0.033700
     16 C11         18.4030    26.4320    -5.7510 c5         1 ZP6      -0.083400
     17 C10         17.9820    27.2700    -6.9870 c5         1 ZP6      -0.101400
     18 C9          16.8980    26.3670    -7.6310 c5         1 ZP6       0.117000
     19 N1          16.2460    25.7840    -6.4390 n          1 ZP6      -0.411800
     20 C8          15.0720    25.0150    -6.4890 c          1 ZP6       0.647100
     21 O2          14.5590    24.5170    -5.4990 o          1 ZP6      -0.524000
     22 O1          14.5540    24.9640    -7.7540 os         1 ZP6      -0.451100
     23 C7          13.3830    24.1590    -7.9830 c3         1 ZP6       0.227900
     24 C5          13.7690    22.6820    -7.9410 ca         1 ZP6      -0.110300
     25 C6          14.6820    22.1630    -8.8820 ca         1 ZP6      -0.087000
     26 C1          15.0400    20.8040    -8.8490 ca         1 ZP6      -0.118500
     27 C4          13.2180    21.8240    -6.9680 ca         1 ZP6      -0.087000
     28 C3          13.5770    20.4650    -6.9360 ca         1 ZP6      -0.118500
     29 C2          14.4880    19.9540    -7.8760 ca         1 ZP6      -0.111000
     30 H2          14.5640    28.5970    -3.0140 h1         1 ZP6       0.068700
     31 H3          16.5100    30.0030    -3.8260 hc         1 ZP6       0.034700
     32 H4          15.5750    30.4560    -5.2360 hc         1 ZP6       0.034700
     33 H5          14.0240    32.3170    -5.0920 ha         1 ZP6       0.113000
     34 H6          13.0020    34.1480    -3.7570 ha         1 ZP6       0.093000
     35 H7          13.2460    34.1740    -1.2760 ha         1 ZP6       0.089000
     36 H8          14.5170    32.3610    -0.1310 ha         1 ZP6       0.093000
     37 H9          15.5440    30.5260    -1.4610 ha         1 ZP6       0.113000
     38 H10         15.1510    27.4510    -5.6530 hn         1 ZP6       0.343500
     39 H11         17.1240    25.0310    -4.6220 h1         1 ZP6       0.088700
     40 H12         19.0060    25.5680    -6.0560 hc         1 ZP6       0.055200
     41 H13         19.0010    27.0030    -5.0320 hc         1 ZP6       0.055200
     42 H14         18.8160    27.4700    -7.6690 hc         1 ZP6       0.055700
     43 H15         17.5650    28.2390    -6.6890 hc         1 ZP6       0.055700
     44 H16         16.2010    26.9450    -8.2520 h1         1 ZP6       0.047200
     45 H17         17.3460    25.5760    -8.2490 h1         1 ZP6       0.047200
     46 H18         12.9650    24.3810    -8.9740 h1         1 ZP6       0.070200
     47 H19         12.6000    24.3770    -7.2440 h1         1 ZP6       0.070200
     48 H20         15.1150    22.8160    -9.6380 ha         1 ZP6       0.118500
     49 H21         15.7450    20.4100    -9.5770 ha         1 ZP6       0.106000
     50 H22         12.5150    22.2100    -6.2330 ha         1 ZP6       0.118500
     51 H23         13.1500    19.8080    -6.1810 ha         1 ZP6       0.106000
     52 H24         14.7650    18.9030    -7.8510 ha         1 ZP6       0.104000
@<TRIPOS>BOND
     1     1     2 1   
     2     2     3 1   
     3     2     4 1   
     4     4     5 1   
     5     4    12 1   
     6     4    30 1   
     7     5     6 1   
     8     5    31 1   
     9     5    32 1   
    10     6     7 ar  
    11     6    11 ar  
    12     7     8 ar  
    13     7    33 1   
    14     8     9 ar  
    15     8    34 1   
    16     9    10 ar  
    17     9    35 1   
    18    10    11 ar  
    19    10    36 1   
    20    11    37 1   
    21    12    13 1   
    22    12    38 1   
    23    13    14 2   
    24    13    15 1   
    25    15    16 1   
    26    15    19 1   
    27    15    39 1   
    28    16    17 1   
    29    16    40 1   
    30    16    41 1   
    31    17    18 1   
    32    17    42 1   
    33    17    43 1   
    34    18    19 1   
    35    18    44 1   
    36    18    45 1   
    37    19    20 1   
    38    20    21 2   
    39    20    22 1   
    40    22    23 1   
    41    23    24 1   
    42    23    46 1   
    43    23    47 1   
    44    24    25 ar  
    45    24    27 ar  
    46    25    26 ar  
    47    25    48 1   
    48    26    29 ar  
    49    26    49 1   
    50    27    28 ar  
    51    27    50 1   
    52    28    29 ar  
    53    28    51 1   
    54    29    52 1   
@<TRIPOS>SUBSTRUCTURE
     1 ZP6         1 TEMP              0 ****  ****    0 ROOT
