@<TRIPOS>MOLECULE
ZP7
   61    60     1     0     0
SMALL
abcg2


@<TRIPOS>ATOM
      1 C01         -6.3580   -37.1620    36.9500 c3         1 ZP7      -0.089100
      2 C02         -6.6280   -36.8490    35.4830 c3         1 ZP7      -0.073400
      3 C03         -7.7180   -35.8040    35.2630 c3         1 ZP7      -0.074400
      4 C04         -9.1130   -36.2520    35.6890 c3         1 ZP7      -0.076400
      5 C05        -10.1780   -35.2080    35.3760 c3         1 ZP7      -0.073400
      6 C06        -11.5870   -35.5840    35.8260 c3         1 ZP7      -0.071400
      7 C07        -12.1640   -36.8090    35.1260 c3         1 ZP7      -0.075400
      8 C08        -13.6200   -37.0710    35.4890 c3         1 ZP7      -0.075400
      9 C09        -14.1930   -38.3090    34.8120 c3         1 ZP7      -0.074400
     10 C10        -15.6570   -38.5620    35.1470 c3         1 ZP7      -0.074400
     11 C11        -16.2130   -39.8170    34.4860 c3         1 ZP7      -0.074400
     12 C12        -17.6810   -40.0690    34.8050 c3         1 ZP7      -0.074400
     13 C13        -18.2230   -41.3370    34.1580 c3         1 ZP7      -0.076400
     14 C14        -19.6930   -41.5790    34.4710 c3         1 ZP7      -0.068400
     15 C15        -20.2090   -42.8540    33.8220 c3         1 ZP7      -0.137400
     16 C16        -21.6660   -43.1210    34.0860 c          1 ZP7       0.594100
     17 C19        -23.4510   -44.5900    33.6050 c3         1 ZP7       0.167600
     18 C20        -23.6830   -45.8500    32.8030 c3         1 ZP7       0.168300
     19 C21        -25.1720   -46.1590    32.7570 c3         1 ZP7       0.119600
     20 O17        -22.3920   -42.4310    34.7560 o          1 ZP7      -0.491000
     21 O18        -22.0750   -44.2310    33.4760 os         1 ZP7      -0.437100
     22 O22        -25.3320   -47.3420    32.0070 oh         1 ZP7      -0.669000
     23 O23        -22.9590   -46.8970    33.4030 oh         1 ZP7      -0.651000
     24 H1          -5.5390   -37.8740    37.0570 hc         1 ZP7       0.030700
     25 H2          -6.0830   -36.2590    37.4980 hc         1 ZP7       0.030700
     26 H3          -7.2300   -37.5930    37.4430 hc         1 ZP7       0.030700
     27 H4          -6.8980   -37.7690    34.9550 hc         1 ZP7       0.036200
     28 H5          -5.7020   -36.4970    35.0200 hc         1 ZP7       0.036200
     29 H6          -7.4520   -34.8850    35.7960 hc         1 ZP7       0.036200
     30 H7          -7.7470   -35.5400    34.2010 hc         1 ZP7       0.036200
     31 H8          -9.3500   -37.1940    35.1840 hc         1 ZP7       0.038200
     32 H9          -9.1320   -36.4690    36.7620 hc         1 ZP7       0.038200
     33 H10        -10.1850   -35.0100    34.2980 hc         1 ZP7       0.036200
     34 H11         -9.8950   -34.2630    35.8530 hc         1 ZP7       0.036200
     35 H12        -12.2520   -34.7330    35.6500 hc         1 ZP7       0.036700
     36 H13        -11.5920   -35.7500    36.9090 hc         1 ZP7       0.036700
     37 H14        -11.5730   -37.6970    35.3680 hc         1 ZP7       0.037700
     38 H15        -12.0820   -36.6780    34.0400 hc         1 ZP7       0.037700
     39 H16        -14.2230   -36.1960    35.2220 hc         1 ZP7       0.036700
     40 H17        -13.7110   -37.1770    36.5760 hc         1 ZP7       0.036700
     41 H18        -13.6010   -39.1850    35.0970 hc         1 ZP7       0.036700
     42 H19        -14.0830   -38.2130    33.7260 hc         1 ZP7       0.036700
     43 H20        -16.2540   -37.6940    34.8430 hc         1 ZP7       0.037700
     44 H21        -15.7730   -38.6420    36.2340 hc         1 ZP7       0.037700
     45 H22        -15.6210   -40.6830    34.7980 hc         1 ZP7       0.037200
     46 H23        -16.0880   -39.7410    33.4000 hc         1 ZP7       0.037200
     47 H24        -18.2760   -39.2100    34.4780 hc         1 ZP7       0.039700
     48 H25        -17.8100   -40.1320    35.8910 hc         1 ZP7       0.039700
     49 H26        -17.6320   -42.1970    34.4920 hc         1 ZP7       0.037700
     50 H27        -18.0860   -41.2790    33.0720 hc         1 ZP7       0.037700
     51 H28        -20.2800   -40.7240    34.1270 hc         1 ZP7       0.053700
     52 H29        -19.8280   -41.6320    35.5540 hc         1 ZP7       0.053700
     53 H30        -20.0590   -42.8190    32.7390 hc         1 ZP7       0.072700
     54 H31        -19.6340   -43.7190    34.1670 hc         1 ZP7       0.072700
     55 H32        -23.7060   -44.7540    34.6560 h1         1 ZP7       0.055200
     56 H33        -24.0860   -43.7870    33.2220 h1         1 ZP7       0.055200
     57 H34        -23.3420   -45.6750    31.7710 h1         1 ZP7       0.054700
     58 H35        -25.5520   -46.2740    33.7800 h1         1 ZP7       0.032700
     59 H36        -25.7050   -45.3150    32.3030 h1         1 ZP7       0.032700
     60 H37        -26.2120   -47.6940    32.1690 ho         1 ZP7       0.453000
     61 H38        -23.2080   -47.7150    32.9590 ho         1 ZP7       0.459000
@<TRIPOS>BOND
     1     1     2 1   
     2     1    24 1   
     3     1    25 1   
     4     1    26 1   
     5     2     3 1   
     6     2    27 1   
     7     2    28 1   
     8     3     4 1   
     9     3    29 1   
    10     3    30 1   
    11     4     5 1   
    12     4    31 1   
    13     4    32 1   
    14     5     6 1   
    15     5    33 1   
    16     5    34 1   
    17     6     7 1   
    18     6    35 1   
    19     6    36 1   
    20     7     8 1   
    21     7    37 1   
    22     7    38 1   
    23     8     9 1   
    24     8    39 1   
    25     8    40 1   
    26     9    10 1   
    27     9    41 1   
    28     9    42 1   
    29    10    11 1   
    30    10    43 1   
    31    10    44 1   
    32    11    12 1   
    33    11    45 1   
    34    11    46 1   
    35    12    13 1   
    36    12    47 1   
    37    12    48 1   
    38    13    14 1   
    39    13    49 1   
    40    13    50 1   
    41    14    15 1   
    42    14    51 1   
    43    14    52 1   
    44    15    16 1   
    45    15    53 1   
    46    15    54 1   
    47    16    20 2   
    48    16    21 1   
    49    17    18 1   
    50    17    21 1   
    51    17    55 1   
    52    17    56 1   
    53    18    19 1   
    54    18    23 1   
    55    18    57 1   
    56    19    22 1   
    57    19    58 1   
    58    19    59 1   
    59    22    60 1   
    60    23    61 1   
@<TRIPOS>SUBSTRUCTURE
     1 ZP7         1 TEMP              0 ****  ****    0 ROOT
