@<TRIPOS>MOLECULE
ZP7
   61    60     1     0     0
SMALL
No Charge or Current Charge


@<TRIPOS>ATOM
      1 C01         -6.9160   -35.8220    37.6090 c3         1 ZP7      -0.089100
      2 C02         -6.7970   -36.1980    36.1180 c3         1 ZP7      -0.073400
      3 C03         -7.8450   -35.5200    35.2020 c3         1 ZP7      -0.074400
      4 C04         -9.3050   -35.9480    35.4780 c3         1 ZP7      -0.076400
      5 C05        -10.3130   -35.3140    34.4900 c3         1 ZP7      -0.073400
      6 C06        -11.7960   -35.6420    34.7870 c3         1 ZP7      -0.071400
      7 C07        -12.1680   -37.1350    34.6230 c3         1 ZP7      -0.075400
      8 C08        -13.6720   -37.4080    34.8420 c3         1 ZP7      -0.075400
      9 C09        -14.0450   -38.8980    34.6820 c3         1 ZP7      -0.074400
     10 C10        -15.5490   -39.1720    34.9010 c3         1 ZP7      -0.074400
     11 C11        -15.9220   -40.6620    34.7410 c3         1 ZP7      -0.074400
     12 C12        -17.4250   -40.9350    34.9620 c3         1 ZP7      -0.074400
     13 C13        -17.7980   -42.4260    34.8010 c3         1 ZP7      -0.076400
     14 C14        -19.3020   -42.6990    35.0220 c3         1 ZP7      -0.068400
     15 C15        -19.6750   -44.1920    34.8620 c3         1 ZP7      -0.137400
     16 C16        -21.1720   -44.4190    35.0820 c          1 ZP7       0.594100
     17 C19        -23.3030   -44.5560    33.9620 c3         1 ZP7       0.167600
     18 C20        -23.8790   -44.4950    32.5210 c3         1 ZP7       0.168300
     19 C21        -25.4300   -44.5190    32.5110 c3         1 ZP7       0.119600
     20 O17        -21.6810   -44.5720    36.1840 o          1 ZP7      -0.491000
     21 O18        -21.8720   -44.3770    33.9050 os         1 ZP7      -0.437100
     22 O22        -25.9150   -44.5610    31.1560 oh         1 ZP7      -0.669000
     23 O23        -23.4060   -45.5990    31.7270 oh         1 ZP7      -0.651000
     24 H1          -6.0940   -36.2700    38.1800 hc         1 ZP7       0.030700
     25 H2          -6.8710   -34.7350    37.7410 hc         1 ZP7       0.030700
     26 H3          -7.8580   -36.1860    38.0350 hc         1 ZP7       0.030700
     27 H4          -6.8710   -37.2870    36.0120 hc         1 ZP7       0.036200
     28 H5          -5.7960   -35.9170    35.7680 hc         1 ZP7       0.036200
     29 H6          -7.7590   -34.4310    35.3010 hc         1 ZP7       0.036200
     30 H7          -7.5980   -35.7600    34.1600 hc         1 ZP7       0.036200
     31 H8          -9.3700   -37.0400    35.4180 hc         1 ZP7       0.038200
     32 H9          -9.5850   -35.6620    36.4990 hc         1 ZP7       0.038200
     33 H10        -10.0710   -35.6320    33.4680 hc         1 ZP7       0.036200
     34 H11        -10.1910   -34.2230    34.5150 hc         1 ZP7       0.036200
     35 H12        -12.4220   -35.0470    34.1100 hc         1 ZP7       0.036700
     36 H13        -12.0410   -35.3160    35.8060 hc         1 ZP7       0.036700
     37 H14        -11.5930   -37.7370    35.3360 hc         1 ZP7       0.037700
     38 H15        -11.8840   -37.4680    33.6170 hc         1 ZP7       0.037700
     39 H16        -14.2540   -36.8120    34.1280 hc         1 ZP7       0.036700
     40 H17        -13.9560   -37.0720    35.8470 hc         1 ZP7       0.036700
     41 H18        -13.4620   -39.4940    35.3950 hc         1 ZP7       0.036700
     42 H19        -13.7610   -39.2340    33.6760 hc         1 ZP7       0.036700
     43 H20        -16.1310   -38.5760    34.1870 hc         1 ZP7       0.037700
     44 H21        -15.8330   -38.8350    35.9060 hc         1 ZP7       0.037700
     45 H22        -15.3390   -41.2580    35.4550 hc         1 ZP7       0.037200
     46 H23        -15.6380   -40.9980    33.7360 hc         1 ZP7       0.037200
     47 H24        -18.0080   -40.3390    34.2480 hc         1 ZP7       0.039700
     48 H25        -17.7090   -40.5990    35.9670 hc         1 ZP7       0.039700
     49 H26        -17.2150   -43.0210    35.5140 hc         1 ZP7       0.037700
     50 H27        -17.5140   -42.7610    33.7960 hc         1 ZP7       0.037700
     51 H28        -19.8860   -42.1030    34.3090 hc         1 ZP7       0.053700
     52 H29        -19.5860   -42.3630    36.0280 hc         1 ZP7       0.053700
     53 H30        -19.4140   -44.4910    33.8400 hc         1 ZP7       0.072700
     54 H31        -19.1110   -44.7840    35.5930 hc         1 ZP7       0.072700
     55 H32        -23.5600   -45.5220    34.4170 h1         1 ZP7       0.055200
     56 H33        -23.7630   -43.7620    34.5660 h1         1 ZP7       0.055200
     57 H34        -23.5580   -43.5460    32.0700 h1         1 ZP7       0.054700
     58 H35        -25.7840   -45.3960    33.0710 h1         1 ZP7       0.032700
     59 H36        -25.8040   -43.6230    33.0240 h1         1 ZP7       0.032700
     60 H37        -26.8980   -44.5100    31.1970 ho         1 ZP7       0.453000
     61 H38        -24.0720   -45.6750    31.0040 ho         1 ZP7       0.459000
@<TRIPOS>BOND
     1     1     2 1   
     2     1    24 1   
     3     1    25 1   
     4     1    26 1   
     5     2     3 1   
     6     2    27 1   
     7     2    28 1   
     8     3     4 1   
     9     3    29 1   
    10     3    30 1   
    11     4     5 1   
    12     4    31 1   
    13     4    32 1   
    14     5     6 1   
    15     5    33 1   
    16     5    34 1   
    17     6     7 1   
    18     6    35 1   
    19     6    36 1   
    20     7     8 1   
    21     7    37 1   
    22     7    38 1   
    23     8     9 1   
    24     8    39 1   
    25     8    40 1   
    26     9    10 1   
    27     9    41 1   
    28     9    42 1   
    29    10    11 1   
    30    10    43 1   
    31    10    44 1   
    32    11    12 1   
    33    11    45 1   
    34    11    46 1   
    35    12    13 1   
    36    12    47 1   
    37    12    48 1   
    38    13    14 1   
    39    13    49 1   
    40    13    50 1   
    41    14    15 1   
    42    14    51 1   
    43    14    52 1   
    44    15    16 1   
    45    15    53 1   
    46    15    54 1   
    47    16    20 2   
    48    16    21 1   
    49    17    18 1   
    50    17    21 1   
    51    17    55 1   
    52    17    56 1   
    53    18    19 1   
    54    18    23 1   
    55    18    57 1   
    56    19    22 1   
    57    19    58 1   
    58    19    59 1   
    59    22    60 1   
    60    23    61 1   
@<TRIPOS>SUBSTRUCTURE
     1 ZP7         1 TEMP              0 ****  ****    0 ROOT
