@<TRIPOS>MOLECULE
ZP8
   27    27     1     0     0
SMALL
abcg2


@<TRIPOS>ATOM
      1 N1           0.7210   -10.2180    66.8420 nt         1 ZP8      -0.608000
      2 C4          -1.5830   -10.9100    67.0220 c6         1 ZP8      -0.144700
      3 C5          -0.4800    -9.9230    67.3630 c          1 ZP8       0.605100
      4 C7          -6.6030    -9.5530    67.2870 c3         1 ZP8      -0.101300
      5 C8          -7.9550    -9.3310    66.8070 c1         1 ZP8       0.311900
      6 N           -4.4700   -10.4320    66.5070 n          1 ZP8      -0.415800
      7 C           -2.1810   -10.5170    65.6560 c6         1 ZP8      -0.081400
      8 O           -0.6870    -8.9160    68.0250 o          1 ZP8      -0.605100
      9 C1          -3.5990   -11.0350    65.5000 c6         1 ZP8       0.105000
     10 C2          -3.8460   -10.0270    67.7650 c6         1 ZP8       0.105000
     11 C3          -2.6840   -10.9500    68.0880 c6         1 ZP8      -0.081400
     12 N2          -9.0330    -9.1390    66.4590 n1         1 ZP8      -0.441000
     13 O1          -6.2930   -10.6450    65.1880 o          1 ZP8      -0.585100
     14 H1           1.4980    -9.5870    66.9570 hn         1 ZP8       0.315000
     15 H2           0.8790   -11.0540    66.3070 hn         1 ZP8       0.315000
     16 H3          -1.1510   -11.9100    66.9300 hc         1 ZP8       0.058700
     17 H4          -6.1680    -8.5900    67.5650 hc         1 ZP8       0.086700
     18 H5          -6.6600   -10.1460    68.2040 hc         1 ZP8       0.086700
     19 H6          -1.5690   -10.9120    64.8440 hc         1 ZP8       0.059700
     20 H7          -2.1920    -9.4300    65.5390 hc         1 ZP8       0.059700
     21 H8          -3.9760   -10.7840    64.5100 h1         1 ZP8       0.056700
     22 H9          -3.6190   -12.1270    65.5850 h1         1 ZP8       0.056700
     23 H10         -3.5050    -8.9890    67.7100 h1         1 ZP8       0.056700
     24 H11         -4.5690   -10.0890    68.5760 h1         1 ZP8       0.056700
     25 H12         -3.0670   -11.9690    68.1710 hc         1 ZP8       0.059700
     26 H13         -2.2930   -10.6890    69.0720 hc         1 ZP8       0.059700
     27 C6          -5.7690   -10.2670    66.2240 c          1 ZP8       0.609100
@<TRIPOS>BOND
     1     1     3 1   
     2     1    14 1   
     3     1    15 1   
     4     2     3 1   
     5     2     7 1   
     6     2    11 1   
     7     2    16 1   
     8     3     8 2   
     9     4     5 1   
    10     4    17 1   
    11     4    18 1   
    12     4    27 1   
    13     5    12 3   
    14     6     9 1   
    15     6    10 1   
    16     6    27 1   
    17     7     9 1   
    18     7    19 1   
    19     7    20 1   
    20     9    21 1   
    21     9    22 1   
    22    10    11 1   
    23    10    23 1   
    24    10    24 1   
    25    11    25 1   
    26    11    26 1   
    27    13    27 2   
@<TRIPOS>SUBSTRUCTURE
     1 ZP8         1 TEMP              0 ****  ****    0 ROOT
