@<TRIPOS>MOLECULE
ZP8
   27    27     1     0     0
SMALL
No Charge or Current Charge


@<TRIPOS>ATOM
      1 N1           0.4420    -9.3530    66.9040 nt         1 ZP8      -0.608000
      2 C4          -1.6080   -10.7260    66.8470 c6         1 ZP8      -0.144700
      3 C5          -0.9080    -9.3520    66.9410 c          1 ZP8       0.605100
      4 C7          -6.7290    -9.6800    67.2940 c3         1 ZP8      -0.101300
      5 C8          -6.6460    -8.2590    66.9750 c1         1 ZP8       0.311900
      6 N           -4.5730   -10.8760    66.6280 n          1 ZP8      -0.415800
      7 C           -2.3290   -10.9570    65.4850 c6         1 ZP8      -0.081400
      8 O           -1.5170    -8.3000    67.0330 o          1 ZP8      -0.605100
      9 C1          -3.7140   -11.6260    65.6610 c6         1 ZP8       0.105000
     10 C2          -3.9200   -10.5160    67.9270 c6         1 ZP8       0.105000
     11 C3          -2.4810   -11.0690    68.0840 c6         1 ZP8      -0.081400
     12 N2          -6.5860    -7.1180    66.7510 n1         1 ZP8      -0.441000
     13 O1          -6.3840   -10.8000    65.2170 o          1 ZP8      -0.585100
     14 H1           0.9370    -8.4750    66.9580 hn         1 ZP8       0.315000
     15 H2           0.9470   -10.2230    66.8220 hn         1 ZP8       0.315000
     16 H3          -0.7900   -11.4610    66.8640 hc         1 ZP8       0.058700
     17 H4          -6.3870    -9.8020    68.3230 hc         1 ZP8       0.086700
     18 H5          -7.7800    -9.9750    67.2130 hc         1 ZP8       0.086700
     19 H6          -1.7020   -11.5610    64.8150 hc         1 ZP8       0.059700
     20 H7          -2.4760    -9.9940    64.9750 hc         1 ZP8       0.059700
     21 H8          -4.1960   -11.6970    64.6760 h1         1 ZP8       0.056700
     22 H9          -3.5830   -12.6550    66.0250 h1         1 ZP8       0.056700
     23 H10         -3.8920    -9.4200    68.0160 h1         1 ZP8       0.056700
     24 H11         -4.5250   -10.9010    68.7600 h1         1 ZP8       0.056700
     25 H12         -2.5330   -12.1600    68.2050 hc         1 ZP8       0.059700
     26 H13         -2.0210   -10.6830    69.0040 hc         1 ZP8       0.059700
     27 C6          -5.9010   -10.4980    66.3010 c          1 ZP8       0.609100
@<TRIPOS>BOND
     1     1     3 1   
     2     1    14 1   
     3     1    15 1   
     4     2     3 1   
     5     2     7 1   
     6     2    11 1   
     7     2    16 1   
     8     3     8 2   
     9     4     5 1   
    10     4    17 1   
    11     4    18 1   
    12     4    27 1   
    13     5    12 3   
    14     6     9 1   
    15     6    10 1   
    16     6    27 1   
    17     7     9 1   
    18     7    19 1   
    19     7    20 1   
    20     9    21 1   
    21     9    22 1   
    22    10    11 1   
    23    10    23 1   
    24    10    24 1   
    25    11    25 1   
    26    11    26 1   
    27    13    27 2   
@<TRIPOS>SUBSTRUCTURE
     1 ZP8         1 TEMP              0 ****  ****    0 ROOT
