@<TRIPOS>MOLECULE
ZPA
   78    81     1     0     0
SMALL
abcg2


@<TRIPOS>ATOM
      1 C13          8.5910     0.2930    -0.9770 ca         1 ZPA      -0.088500
      2 C14          9.6610     0.3460    -1.8590 ca         1 ZPA      -0.117500
      3 C15         10.6470    -0.6320    -1.8200 ca         1 ZPA      -0.101000
      4 C16         10.5580    -1.6610    -0.8920 ca         1 ZPA      -0.117500
      5 C17          9.4850    -1.7140    -0.0110 ca         1 ZPA      -0.088500
      6 C12          8.4920    -0.7390    -0.0470 ca         1 ZPA      -0.120300
      7 C11          7.3220    -0.8040     0.9000 c3         1 ZPA       0.154300
      8 N8           6.1660    -1.4540     0.3030 n          1 ZPA      -0.377400
      9 C7           5.1650    -0.7750    -0.3540 c          1 ZPA       0.577000
     10 O7           5.1610     0.4140    -0.5560 o          1 ZPA      -0.510000
     11 C9           5.9830    -2.8210     0.3070 c          1 ZPA       0.575000
     12 O9           6.7280    -3.6060     0.8370 o          1 ZPA      -0.498000
     13 C10          4.7340    -3.1270    -0.4770 c5         1 ZPA      -0.153400
     14 C6           4.0860    -1.7700    -0.7240 c5         1 ZPA      -0.023700
     15 S5           2.6690    -1.5450     0.3950 ss         1 ZPA      -0.386000
     16 C4           1.8940    -0.0500    -0.2890 c3         1 ZPA       0.057600
     17 C3           0.6050     0.2260     0.4720 c3         1 ZPA      -0.056400
     18 C2          -0.0650     1.4830    -0.0620 c3         1 ZPA      -0.119700
     19 C1          -1.3430     1.8520     0.6410 c2         1 ZPA       0.631200
     20 N2          -1.8090     1.1010     1.5620 n2         1 ZPA      -0.831100
     21 N1          -1.8940     3.0300     0.1920 nu         1 ZPA      -0.923400
     22 C21         -3.2540     3.3360     0.4830 c6         1 ZPA       0.397500
     23 O5          -4.0610     2.3320    -0.0810 os         1 ZPA      -0.478000
     24 C20         -3.6860     4.6910    -0.0740 c6         1 ZPA       0.110300
     25 O2          -3.0080     5.7600     0.5350 oh         1 ZPA      -0.715000
     26 C19         -5.1790     4.8800     0.2080 c6         1 ZPA       0.137300
     27 O3          -5.6930     6.0160    -0.4430 oh         1 ZPA      -0.664000
     28 C18         -6.0080     3.6780    -0.2510 c6         1 ZPA       0.151300
     29 O4          -7.3400     3.7760     0.1820 oh         1 ZPA      -0.712000
     30 C5          -5.4010     2.4100     0.3380 c6         1 ZPA       0.165300
     31 C8          -6.0680     1.1240    -0.1010 c3         1 ZPA       0.182600
     32 O6          -5.3730     0.0700     0.5380 os         1 ZPA      -0.445000
     33 C1A         -5.2690    -1.1150    -0.1500 c6         1 ZPA       0.359300
     34 O5A         -6.4610    -1.8330     0.0560 os         1 ZPA      -0.478000
     35 C5A         -6.4680    -3.0750    -0.6080 c6         1 ZPA       0.139600
     36 C4A         -5.3580    -3.9670    -0.0630 c6         1 ZPA       0.088300
     37 O4A         -5.2960    -5.1940    -0.7540 oh         1 ZPA      -0.722000
     38 C3A         -4.0150    -3.2720    -0.2450 c6         1 ZPA       0.177300
     39 O3A         -2.9660    -3.9970     0.3440 oh         1 ZPA      -0.639000
     40 C2A         -4.0460    -1.8810     0.3760 c6         1 ZPA       0.168300
     41 O2A         -2.8560    -1.2310     0.0230 oh         1 ZPA      -0.722000
     42 H1           7.8300     1.0620    -1.0110 ha         1 ZPA       0.124000
     43 H2           9.7280     1.1550    -2.5750 ha         1 ZPA       0.113500
     44 H3          11.4830    -0.5890    -2.5050 ha         1 ZPA       0.112000
     45 H4          11.3250    -2.4230    -0.8510 ha         1 ZPA       0.113500
     46 H5           9.4240    -2.5170     0.7120 ha         1 ZPA       0.124000
     47 H6           7.5840    -1.3550     1.8020 h1         1 ZPA       0.072200
     48 H7           7.0160     0.1940     1.2080 h1         1 ZPA       0.072200
     49 H8           5.0270    -3.5960    -1.4190 hc         1 ZPA       0.097700
     50 H9           4.1070    -3.8410     0.0570 hc         1 ZPA       0.097700
     51 H10          3.7620    -1.6250    -1.7550 h1         1 ZPA       0.103700
     52 H11          2.5800     0.7910    -0.2020 h1         1 ZPA       0.065200
     53 H12          1.6910    -0.2180    -1.3490 h1         1 ZPA       0.065200
     54 H13         -0.0730    -0.6240     0.3810 hc         1 ZPA       0.077200
     55 H14          0.8200     0.3470     1.5350 hc         1 ZPA       0.077200
     56 H15          0.6220     2.3330     0.0030 hc         1 ZPA       0.053200
     57 H16         -0.2860     1.3630    -1.1280 hc         1 ZPA       0.053200
     58 H17         -2.6770     1.4480     1.9580 hn         1 ZPA       0.387400
     59 H18         -1.5450     3.3530    -0.7000 hn         1 ZPA       0.469000
     60 H19         -3.3880     3.3530     1.5760 h2         1 ZPA       0.066700
     61 H20         -3.5330     4.6820    -1.1640 h1         1 ZPA       0.053700
     62 H21         -2.1020     5.7830     0.2130 ho         1 ZPA       0.519000
     63 H22         -5.3000     4.9680     1.3000 h1         1 ZPA       0.056700
     64 H23         -5.3270     6.8020    -0.0260 ho         1 ZPA       0.466000
     65 H24         -5.9490     3.6120    -1.3490 h1         1 ZPA       0.055700
     66 H25         -7.7290     4.5670    -0.2050 ho         1 ZPA       0.526000
     67 H26         -5.4550     2.4710     1.4380 h1         1 ZPA       0.063700
     68 H27         -7.1240     1.1290     0.1790 h1         1 ZPA       0.055200
     69 H28         -6.0120     1.0260    -1.1920 h1         1 ZPA       0.055200
     70 H29         -5.1310    -0.9370    -1.2340 h2         1 ZPA       0.032700
     71 H30         -7.4470    -3.5260    -0.4390 h1         1 ZPA       0.054200
     72 H31         -6.3410    -2.9480    -1.6930 h1         1 ZPA       0.054200
     73 H32         -5.5290    -4.1270     1.0110 h1         1 ZPA       0.057700
     74 H33         -5.9730    -5.7800    -0.4030 ho         1 ZPA       0.511000
     75 H34         -3.8490    -3.1530    -1.3290 h1         1 ZPA       0.049700
     76 H35         -2.9880    -4.8880    -0.0200 ho         1 ZPA       0.454000
     77 H36         -4.1520    -1.9860     1.4670 h1         1 ZPA       0.063700
     78 H37         -2.6750    -0.4840     0.6150 ho         1 ZPA       0.541000
@<TRIPOS>BOND
     1     1     2 ar  
     2     1     6 ar  
     3     1    42 1   
     4     2     3 ar  
     5     2    43 1   
     6     3     4 ar  
     7     3    44 1   
     8     4     5 ar  
     9     4    45 1   
    10     5     6 ar  
    11     5    46 1   
    12     6     7 1   
    13     7     8 1   
    14     7    47 1   
    15     7    48 1   
    16     8     9 1   
    17     8    11 1   
    18     9    10 2   
    19     9    14 1   
    20    11    12 2   
    21    11    13 1   
    22    13    14 1   
    23    13    49 1   
    24    13    50 1   
    25    14    15 1   
    26    14    51 1   
    27    15    16 1   
    28    16    17 1   
    29    16    52 1   
    30    16    53 1   
    31    17    18 1   
    32    17    54 1   
    33    17    55 1   
    34    18    19 1   
    35    18    56 1   
    36    18    57 1   
    37    19    20 2   
    38    19    21 1   
    39    20    58 1   
    40    21    22 1   
    41    21    59 1   
    42    22    23 1   
    43    22    24 1   
    44    22    60 1   
    45    23    30 1   
    46    24    25 1   
    47    24    26 1   
    48    24    61 1   
    49    25    62 1   
    50    26    27 1   
    51    26    28 1   
    52    26    63 1   
    53    27    64 1   
    54    28    29 1   
    55    28    30 1   
    56    28    65 1   
    57    29    66 1   
    58    30    31 1   
    59    30    67 1   
    60    31    32 1   
    61    31    68 1   
    62    31    69 1   
    63    32    33 1   
    64    33    34 1   
    65    33    40 1   
    66    33    70 1   
    67    34    35 1   
    68    35    36 1   
    69    35    71 1   
    70    35    72 1   
    71    36    37 1   
    72    36    38 1   
    73    36    73 1   
    74    37    74 1   
    75    38    39 1   
    76    38    40 1   
    77    38    75 1   
    78    39    76 1   
    79    40    41 1   
    80    40    77 1   
    81    41    78 1   
@<TRIPOS>SUBSTRUCTURE
     1 ZPA         1 TEMP              0 ****  ****    0 ROOT
