@<TRIPOS>MOLECULE
ZPA
   78    81     1     0     0
SMALL
No Charge or Current Charge


@<TRIPOS>ATOM
      1 C13          9.0380     0.3180    -2.5050 ca         1 ZPA      -0.088500
      2 C14         10.2690    -0.0240    -3.0900 ca         1 ZPA      -0.117500
      3 C15         11.4720     0.3520    -2.4680 ca         1 ZPA      -0.101000
      4 C16         11.4420     1.0680    -1.2600 ca         1 ZPA      -0.117500
      5 C17         10.2110     1.4110    -0.6750 ca         1 ZPA      -0.088500
      6 C12          9.0020     1.0390    -1.2960 ca         1 ZPA      -0.120300
      7 C11          7.6680     1.4010    -0.6580 c3         1 ZPA       0.154300
      8 N8           7.1560     0.3310     0.2190 n          1 ZPA      -0.377400
      9 C7           6.1910    -0.5640    -0.2230 c          1 ZPA       0.577000
     10 O7           5.7650    -0.6570    -1.3660 o          1 ZPA      -0.510000
     11 C9           7.5520     0.2390     1.5450 c          1 ZPA       0.575000
     12 O9           8.0930     1.1260     2.1880 o          1 ZPA      -0.498000
     13 C10          6.9670    -1.0910     2.0260 c5         1 ZPA      -0.153400
     14 C6           5.7860    -1.3560     1.0450 c5         1 ZPA      -0.023700
     15 S5           4.2520    -0.6200     1.8270 ss         1 ZPA      -0.386000
     16 C4           2.9760    -0.9610     0.5330 c3         1 ZPA       0.057600
     17 C3           1.5750    -0.5850     1.0510 c3         1 ZPA      -0.056400
     18 C2           0.4610    -0.8260     0.0050 c3         1 ZPA      -0.119700
     19 C1          -0.9180    -0.4820     0.5200 c2         1 ZPA       0.631200
     20 N2          -1.7940    -1.3300     0.8600 n2         1 ZPA      -0.831100
     21 N1          -1.2490     0.8450     0.5420 nu         1 ZPA      -0.923400
     22 C21         -2.4340     1.4220     1.1650 c6         1 ZPA       0.397500
     23 O5          -3.5370     1.0970     0.3150 os         1 ZPA      -0.478000
     24 C20         -2.2940     2.9780     1.2840 c6         1 ZPA       0.110300
     25 O2          -1.1860     3.3650     2.1330 oh         1 ZPA      -0.715000
     26 C19         -3.6280     3.5560     1.8350 c6         1 ZPA       0.137300
     27 O3          -3.5530     4.9900     1.9190 oh         1 ZPA      -0.664000
     28 C18         -4.8180     3.1130     0.9310 c6         1 ZPA       0.151300
     29 O4          -6.0510     3.6220     1.4720 oh         1 ZPA      -0.712000
     30 C5          -4.8250     1.5540     0.8100 c6         1 ZPA       0.165300
     31 C8          -5.9180     1.0420    -0.1730 c3         1 ZPA       0.182600
     32 O6          -5.9670    -0.4000    -0.1310 os         1 ZPA      -0.445000
     33 C1A         -6.8910    -1.0270    -1.0340 c6         1 ZPA       0.359300
     34 O5A         -8.2360    -0.6750    -0.6560 os         1 ZPA      -0.478000
     35 C5A         -9.2380    -1.1790    -1.5670 c6         1 ZPA       0.139600
     36 C4A         -9.2050    -2.7360    -1.5860 c6         1 ZPA       0.088300
     37 O4A        -10.1710    -3.2780    -2.5140 oh         1 ZPA      -0.722000
     38 C3A         -7.7700    -3.2300    -1.9490 c6         1 ZPA       0.177300
     39 O3A         -7.7500    -4.6690    -1.8960 oh         1 ZPA      -0.639000
     40 C2A         -6.7120    -2.5820    -0.9940 c6         1 ZPA       0.168300
     41 O2A         -5.3520    -2.9630    -1.3350 oh         1 ZPA      -0.722000
     42 H1           8.1110     0.0210    -2.9920 ha         1 ZPA       0.124000
     43 H2          10.2910    -0.5800    -4.0240 ha         1 ZPA       0.113500
     44 H3          12.4250     0.0860    -2.9210 ha         1 ZPA       0.112000
     45 H4          12.3730     1.3580    -0.7770 ha         1 ZPA       0.113500
     46 H5          10.1970     1.9640     0.2630 ha         1 ZPA       0.124000
     47 H6           7.7780     2.3260    -0.0780 h1         1 ZPA       0.072200
     48 H7           6.9340     1.6150    -1.4470 h1         1 ZPA       0.072200
     49 H8           7.7360    -1.8510     1.8520 hc         1 ZPA       0.097700
     50 H9           6.7290    -1.0740     3.0950 hc         1 ZPA       0.097700
     51 H10          5.6490    -2.4180     0.8050 h1         1 ZPA       0.103700
     52 H11          3.2080    -0.3780    -0.3670 h1         1 ZPA       0.065200
     53 H12          3.0020    -2.0280     0.2740 h1         1 ZPA       0.065200
     54 H13          1.3570    -1.1700     1.9530 hc         1 ZPA       0.077200
     55 H14          1.5740     0.4710     1.3480 hc         1 ZPA       0.077200
     56 H15          0.6780    -0.2410    -0.8970 hc         1 ZPA       0.053200
     57 H16          0.4850    -1.8780    -0.3030 hc         1 ZPA       0.053200
     58 H17         -2.6440    -0.7810     1.0340 hn         1 ZPA       0.387400
     59 H18         -0.7850     1.4010    -0.1700 hn         1 ZPA       0.469000
     60 H19         -2.5980     0.9920     2.1670 h2         1 ZPA       0.066700
     61 H20         -2.1390     3.3780     0.2710 h1         1 ZPA       0.053700
     62 H21         -0.4740     2.7000     1.9720 ho         1 ZPA       0.519000
     63 H22         -3.7860     3.1350     2.8400 h1         1 ZPA       0.056700
     64 H23         -2.6280     5.1740     2.2070 ho         1 ZPA       0.466000
     65 H24         -4.6560     3.5290    -0.0750 h1         1 ZPA       0.055700
     66 H25         -5.8320     4.5350     1.7830 ho         1 ZPA       0.526000
     67 H26         -5.0110     1.1090     1.7980 h1         1 ZPA       0.063700
     68 H27         -6.8870     1.4650     0.1220 h1         1 ZPA       0.055200
     69 H28         -5.6830     1.3980    -1.1840 h1         1 ZPA       0.055200
     70 H29         -6.6930    -0.6680    -2.0550 h2         1 ZPA       0.032700
     71 H30        -10.2250    -0.8270    -1.2340 h1         1 ZPA       0.054200
     72 H31         -9.0520    -0.7770    -2.5740 h1         1 ZPA       0.054200
     73 H32         -9.4370    -3.0830    -0.5670 h1         1 ZPA       0.057700
     74 H33        -11.0700    -3.0460    -2.1790 ho         1 ZPA       0.511000
     75 H34         -7.5480    -2.8970    -2.9740 h1         1 ZPA       0.049700
     76 H35         -8.6110    -4.9380    -2.2900 ho         1 ZPA       0.454000
     77 H36         -6.9390    -2.9090     0.0320 h1         1 ZPA       0.063700
     78 H37         -4.7660    -2.3730    -0.8020 ho         1 ZPA       0.541000
@<TRIPOS>BOND
     1     1     2 ar  
     2     1     6 ar  
     3     1    42 1   
     4     2     3 ar  
     5     2    43 1   
     6     3     4 ar  
     7     3    44 1   
     8     4     5 ar  
     9     4    45 1   
    10     5     6 ar  
    11     5    46 1   
    12     6     7 1   
    13     7     8 1   
    14     7    47 1   
    15     7    48 1   
    16     8     9 1   
    17     8    11 1   
    18     9    10 2   
    19     9    14 1   
    20    11    12 2   
    21    11    13 1   
    22    13    14 1   
    23    13    49 1   
    24    13    50 1   
    25    14    15 1   
    26    14    51 1   
    27    15    16 1   
    28    16    17 1   
    29    16    52 1   
    30    16    53 1   
    31    17    18 1   
    32    17    54 1   
    33    17    55 1   
    34    18    19 1   
    35    18    56 1   
    36    18    57 1   
    37    19    20 2   
    38    19    21 1   
    39    20    58 1   
    40    21    22 1   
    41    21    59 1   
    42    22    23 1   
    43    22    24 1   
    44    22    60 1   
    45    23    30 1   
    46    24    25 1   
    47    24    26 1   
    48    24    61 1   
    49    25    62 1   
    50    26    27 1   
    51    26    28 1   
    52    26    63 1   
    53    27    64 1   
    54    28    29 1   
    55    28    30 1   
    56    28    65 1   
    57    29    66 1   
    58    30    31 1   
    59    30    67 1   
    60    31    32 1   
    61    31    68 1   
    62    31    69 1   
    63    32    33 1   
    64    33    34 1   
    65    33    40 1   
    66    33    70 1   
    67    34    35 1   
    68    35    36 1   
    69    35    71 1   
    70    35    72 1   
    71    36    37 1   
    72    36    38 1   
    73    36    73 1   
    74    37    74 1   
    75    38    39 1   
    76    38    40 1   
    77    38    75 1   
    78    39    76 1   
    79    40    41 1   
    80    40    77 1   
    81    41    78 1   
@<TRIPOS>SUBSTRUCTURE
     1 ZPA         1 TEMP              0 ****  ****    0 ROOT
