@<TRIPOS>MOLECULE
ZPB
   38    39     1     0     0
SMALL
abcg2


@<TRIPOS>ATOM
      1 N1         -16.1130    17.3380    26.1380 ns         1 ZPB      -0.516900
      2 N3         -19.2700    13.4430    25.9250 n          1 ZPB      -0.410800
      3 C4         -16.7500    16.6080    27.0930 c          1 ZPB       0.648100
      4 C5         -18.5660    15.0760    27.6020 c6         1 ZPB       0.082500
      5 C6         -18.8790    13.6170    27.3210 c6         1 ZPB       0.089500
      6 C7         -18.2260    13.8780    25.0080 c6         1 ZPB       0.089500
      7 C8         -17.8800    15.3440    25.2560 c6         1 ZPB       0.082500
      8 C10        -21.5040    12.5780    26.3880 cc         1 ZPB      -0.285600
      9 C13        -23.5420    11.6150    27.4140 cc         1 ZPB      -0.244000
     10 C1         -16.1080    19.7350    26.7460 c3         1 ZPB      -0.109100
     11 C11        -22.0560    13.3910    27.3470 cd         1 ZPB      -0.100000
     12 C12        -23.2240    12.8400    27.9330 cd         1 ZPB      -0.141000
     13 C2         -15.2710    18.4860    26.4750 c3         1 ZPB       0.117700
     14 C3         -14.2660    18.7080    25.3500 c3         1 ZPB      -0.109100
     15 C9         -20.3730    12.8100    25.4580 c          1 ZPB       0.646700
     16 N2         -17.5660    15.5790    26.6620 n          1 ZPB      -0.420800
     17 O1         -16.5760    16.8240    28.2990 o          1 ZPB      -0.645100
     18 O2         -20.4750    12.4450    24.2800 o          1 ZPB      -0.606100
     19 S1         -22.4400    11.1340    26.1930 ss         1 ZPB       0.288000
     20 H8         -16.4410    17.3020    25.1870 hn         1 ZPB       0.302500
     21 H10        -18.1750    15.1820    28.6090 h1         1 ZPB       0.054200
     22 H9         -19.4870    15.6670    27.5210 h1         1 ZPB       0.054200
     23 H12        -17.9820    13.0130    27.4940 h1         1 ZPB       0.066450
     24 H11        -19.6590    13.2610    27.9830 h1         1 ZPB       0.066450
     25 H14        -17.3370    13.2580    25.1570 h1         1 ZPB       0.066450
     26 H13        -18.5740    13.7500    23.9880 h1         1 ZPB       0.066450
     27 H16        -17.0150    15.5730    24.6370 h1         1 ZPB       0.054200
     28 H15        -18.7180    15.9750    24.9340 h1         1 ZPB       0.054200
     29 H19        -24.3620    10.9690    27.6870 h4         1 ZPB       0.153000
     30 H2         -16.8230    19.5510    27.5490 hc         1 ZPB       0.042033
     31 H3         -15.4670    20.5700    27.0370 hc         1 ZPB       0.042033
     32 H1         -16.6610    20.0240    25.8480 hc         1 ZPB       0.042033
     33 H17        -21.6590    14.3610    27.6060 ha         1 ZPB       0.135000
     34 H18        -23.8020    13.3320    28.7030 ha         1 ZPB       0.137000
     35 H4         -14.7350    18.2180    27.3860 h1         1 ZPB       0.081700
     36 H5         -13.6460    17.8220    25.1990 hc         1 ZPB       0.042033
     37 H6         -14.7810    18.9340    24.4120 hc         1 ZPB       0.042033
     38 H7         -13.6160    19.5510    25.5880 hc         1 ZPB       0.042033
@<TRIPOS>BOND
     1     1     3 1   
     2     1    13 1   
     3     1    20 1   
     4     2     5 1   
     5     2     6 1   
     6     2    15 1   
     7     3    16 1   
     8     3    17 2   
     9     4     5 1   
    10     4    16 1   
    11     4    21 1   
    12     4    22 1   
    13     5    23 1   
    14     5    24 1   
    15     6     7 1   
    16     6    25 1   
    17     6    26 1   
    18     7    16 1   
    19     7    27 1   
    20     7    28 1   
    21     8    11 2   
    22     8    15 1   
    23     8    19 1   
    24     9    12 2   
    25     9    19 1   
    26     9    29 1   
    27    10    13 1   
    28    10    30 1   
    29    10    31 1   
    30    10    32 1   
    31    11    12 1   
    32    11    33 1   
    33    12    34 1   
    34    13    14 1   
    35    13    35 1   
    36    14    36 1   
    37    14    37 1   
    38    14    38 1   
    39    15    18 2   
@<TRIPOS>SUBSTRUCTURE
     1 ZPB         1 TEMP              0 ****  ****    0 ROOT
