@<TRIPOS>MOLECULE
ZPB
   38    39     1     0     0
SMALL
No Charge or Current Charge


@<TRIPOS>ATOM
      1 N1         -16.0790    17.4400    26.2270 ns         1 ZPB      -0.516900
      2 N3         -19.4820    13.5870    25.9070 n          1 ZPB      -0.410800
      3 C4         -16.7090    16.7150    27.2110 c          1 ZPB       0.648100
      4 C5         -18.4020    14.9500    27.7450 c6         1 ZPB       0.082500
      5 C6         -18.9400    13.5750    27.2910 c6         1 ZPB       0.089500
      6 C7         -18.4550    14.0670    24.9520 c6         1 ZPB       0.089500
      7 C8         -17.8460    15.4420    25.3280 c6         1 ZPB       0.082500
      8 C10        -21.5940    12.3820    26.3420 cc         1 ZPB      -0.285600
      9 C13        -23.7450    11.5770    27.3540 cc         1 ZPB      -0.244000
     10 C1         -16.0820    19.8840    26.5880 c3         1 ZPB      -0.109100
     11 C11        -22.0820    13.2170    27.3250 cd         1 ZPB      -0.100000
     12 C12        -23.2930    12.7500    27.9020 cd         1 ZPB      -0.141000
     13 C2         -15.2290    18.6060    26.4590 c3         1 ZPB       0.117700
     14 C3         -14.1740    18.7220    25.3430 c3         1 ZPB      -0.109100
     15 C9         -20.3920    12.5870    25.4980 c          1 ZPB       0.646700
     16 N2         -17.5010    15.6350    26.7720 n          1 ZPB      -0.420800
     17 O1         -16.5820    16.9900    28.3940 o          1 ZPB      -0.645100
     18 O2         -20.2040    11.9440    24.4740 o          1 ZPB      -0.606100
     19 S1         -22.6800    11.0260    26.0640 ss         1 ZPB       0.288000
     20 H8         -16.2330    17.1410    25.2750 hn         1 ZPB       0.302500
     21 H10        -17.8770    14.8140    28.7010 h1         1 ZPB       0.054200
     22 H9         -19.2580    15.6120    27.9400 h1         1 ZPB       0.054200
     23 H12        -18.1050    12.8590    27.3190 h1         1 ZPB       0.066450
     24 H11        -19.6710    13.2070    28.0210 h1         1 ZPB       0.066450
     25 H14        -17.6460    13.3230    24.9080 h1         1 ZPB       0.066450
     26 H13        -18.8850    14.1350    23.9430 h1         1 ZPB       0.066450
     27 H16        -16.9520    15.5870    24.7050 h1         1 ZPB       0.054200
     28 H15        -18.5660    16.2240    25.0470 h1         1 ZPB       0.054200
     29 H19        -24.6310    11.0030    27.5940 h4         1 ZPB       0.153000
     30 H2         -16.7970    19.7900    27.4140 hc         1 ZPB       0.042033
     31 H3         -15.4450    20.7540    26.7890 hc         1 ZPB       0.042033
     32 H1         -16.6440    20.0730    25.6660 hc         1 ZPB       0.042033
     33 H17        -21.6190    14.1540    27.6210 ha         1 ZPB       0.135000
     34 H18        -23.8170    13.2780    28.6950 ha         1 ZPB       0.137000
     35 H4         -14.6920    18.4590    27.4070 h1         1 ZPB       0.081700
     36 H5         -13.5630    17.8120    25.2950 hc         1 ZPB       0.042033
     37 H6         -14.6500    18.8710    24.3660 hc         1 ZPB       0.042033
     38 H7         -13.5040    19.5690    25.5320 hc         1 ZPB       0.042033
@<TRIPOS>BOND
     1     1     3 1   
     2     1    13 1   
     3     1    20 1   
     4     2     5 1   
     5     2     6 1   
     6     2    15 1   
     7     3    16 1   
     8     3    17 2   
     9     4     5 1   
    10     4    16 1   
    11     4    21 1   
    12     4    22 1   
    13     5    23 1   
    14     5    24 1   
    15     6     7 1   
    16     6    25 1   
    17     6    26 1   
    18     7    16 1   
    19     7    27 1   
    20     7    28 1   
    21     8    11 2   
    22     8    15 1   
    23     8    19 1   
    24     9    12 2   
    25     9    19 1   
    26     9    29 1   
    27    10    13 1   
    28    10    30 1   
    29    10    31 1   
    30    10    32 1   
    31    11    12 1   
    32    11    33 1   
    33    12    34 1   
    34    13    14 1   
    35    13    35 1   
    36    14    36 1   
    37    14    37 1   
    38    14    38 1   
    39    15    18 2   
@<TRIPOS>SUBSTRUCTURE
     1 ZPB         1 TEMP              0 ****  ****    0 ROOT
