@<TRIPOS>MOLECULE
ZPC
   44    47     1     0     0
SMALL
abcg2


@<TRIPOS>ATOM
      1 C01         -3.7650     3.4180     1.0870 c3         1 ZPC       0.150100
      2 N02         -3.8920     2.0020     0.8240 n3         1 ZPC      -0.716600
      3 C03         -3.9510     1.7240    -0.5990 c6         1 ZPC       0.135800
      4 C04         -4.1430     0.2360    -0.8430 c6         1 ZPC       0.098000
      5 N05         -3.0690    -0.5050    -0.2010 n          1 ZPC      -0.380800
      6 C06         -3.0050    -0.2420     1.2300 c6         1 ZPC       0.098000
      7 C07         -2.8350     1.2500     1.4680 c6         1 ZPC       0.135800
      8 C08         -2.0500    -0.9660    -0.9410 c          1 ZPC       0.648100
      9 O09         -1.9880    -0.9560    -2.1520 o          1 ZPC      -0.532000
     10 O10         -1.0730    -1.5030    -0.1650 os         1 ZPC      -0.454100
     11 C11          0.1830    -1.7320    -0.7390 c5         1 ZPC       0.313400
     12 N12          1.1650    -0.8480    -0.1310 n          1 ZPC      -0.443300
     13 C13          2.1900    -1.5020     0.5180 c          1 ZPC       0.499500
     14 O14          3.1410    -1.0070     1.0670 o          1 ZPC      -0.441000
     15 C15          1.8790    -2.9450     0.3550 ca         1 ZPC       0.241500
     16 N16          2.5790    -3.9680     0.8080 nb         1 ZPC      -0.556000
     17 C17          2.0470    -5.1500     0.5290 ca         1 ZPC       0.286900
     18 C18          0.8500    -5.2870    -0.1830 ca         1 ZPC       0.302900
     19 N19          0.1660    -4.2450    -0.6410 nb         1 ZPC      -0.586000
     20 C20          0.7100    -3.0800    -0.3550 ca         1 ZPC       0.283300
     21 C21          0.9610     0.5400    -0.1180 ca         1 ZPC       0.482900
     22 N22          1.1560     1.1610     1.0310 nb         1 ZPC      -0.666000
     23 C23          0.9320     2.4630     1.0980 ca         1 ZPC       0.374900
     24 C24          0.4650     3.1910     0.0130 ca         1 ZPC       0.036000
     25 CL           0.1330     4.8720     0.1840 cl         1 ZPC      -0.177000
     26 C26          0.2580     2.5460    -1.1940 ca         1 ZPC      -0.053000
     27 C27          0.5290     1.1920    -1.2690 ca         1 ZPC      -0.170000
     28 H01         -4.5910     3.9610     0.6250 h1         1 ZPC       0.034367
     29 H01A        -3.8050     3.6020     2.1610 h1         1 ZPC       0.034367
     30 H01B        -2.8250     3.8490     0.7090 h1         1 ZPC       0.034367
     31 H03         -4.7900     2.2710    -1.0340 h1         1 ZPC       0.042450
     32 H03A        -3.0380     2.0590    -1.1240 h1         1 ZPC       0.042450
     33 H04         -5.0900    -0.0920    -0.4100 h1         1 ZPC       0.073950
     34 H04A        -4.1700     0.0210    -1.9080 h1         1 ZPC       0.073950
     35 H06         -3.9410    -0.5850     1.6780 h1         1 ZPC       0.073950
     36 H06A        -2.1950    -0.7940     1.6970 h1         1 ZPC       0.073950
     37 H07         -1.8370     1.5580     1.1080 h1         1 ZPC       0.042450
     38 H07A        -2.8600     1.4430     2.5420 h1         1 ZPC       0.042450
     39 H11          0.1470    -1.6120    -1.8250 h2         1 ZPC       0.114700
     40 H17          2.5740    -6.0310     0.8730 h4         1 ZPC       0.040100
     41 H18          0.4490    -6.2720    -0.3810 h4         1 ZPC       0.039100
     42 H23          1.1100     2.9460     2.0520 h4         1 ZPC       0.040100
     43 H26         -0.0930     3.0830    -2.0640 ha         1 ZPC       0.139000
     44 H27          0.4030     0.6660    -2.2050 ha         1 ZPC       0.145000
@<TRIPOS>BOND
     1     1     2 1   
     2     1    28 1   
     3     1    29 1   
     4     1    30 1   
     5     2     3 1   
     6     2     7 1   
     7     3     4 1   
     8     3    31 1   
     9     3    32 1   
    10     4     5 1   
    11     4    33 1   
    12     4    34 1   
    13     5     6 1   
    14     5     8 1   
    15     6     7 1   
    16     6    35 1   
    17     6    36 1   
    18     7    37 1   
    19     7    38 1   
    20     8     9 2   
    21     8    10 1   
    22    10    11 1   
    23    11    12 1   
    24    11    20 1   
    25    11    39 1   
    26    12    13 1   
    27    12    21 1   
    28    13    14 2   
    29    13    15 1   
    30    15    16 ar  
    31    15    20 ar  
    32    16    17 ar  
    33    17    18 ar  
    34    17    40 1   
    35    18    19 ar  
    36    18    41 1   
    37    19    20 ar  
    38    21    22 ar  
    39    21    27 ar  
    40    22    23 ar  
    41    23    24 ar  
    42    23    42 1   
    43    24    25 1   
    44    24    26 ar  
    45    26    27 ar  
    46    26    43 1   
    47    27    44 1   
@<TRIPOS>SUBSTRUCTURE
     1 ZPC         1 TEMP              0 ****  ****    0 ROOT
