@<TRIPOS>MOLECULE
ZPC
   44    47     1     0     0
SMALL
No Charge or Current Charge


@<TRIPOS>ATOM
      1 C01         -5.7070     2.1560     3.0020 c3         1 ZPC       0.150100
      2 N02         -4.8160     1.2520     2.2420 n3         1 ZPC      -0.716600
      3 C03         -5.2640     1.0610     0.8400 c6         1 ZPC       0.135800
      4 C04         -4.4010     0.0190     0.0800 c6         1 ZPC       0.098000
      5 N05         -2.9220     0.1820     0.2270 n          1 ZPC      -0.380800
      6 C06         -2.4480     0.7070     1.5480 c6         1 ZPC       0.098000
      7 C07         -3.4050     1.7110     2.2470 c6         1 ZPC       0.135800
      8 C08         -2.0600    -0.5220    -0.6340 c          1 ZPC       0.648100
      9 O09         -2.4470    -1.0980    -1.6420 o          1 ZPC      -0.532000
     10 O10         -0.7520    -0.4230    -0.2400 os         1 ZPC      -0.454100
     11 C11          0.1730    -1.1900    -1.0480 c5         1 ZPC       0.313400
     12 N12          1.5530    -0.6590    -0.8110 n          1 ZPC      -0.443300
     13 C13          2.3920    -1.6500    -0.2630 c          1 ZPC       0.499500
     14 O14          3.5870    -1.5420    -0.0260 o          1 ZPC      -0.441000
     15 C15          1.5790    -2.8850    -0.0760 ca         1 ZPC       0.241500
     16 N16          1.9940    -4.0810     0.4350 nb         1 ZPC      -0.556000
     17 C17          1.0240    -5.0400     0.4610 ca         1 ZPC       0.286900
     18 C18         -0.2970    -4.7980    -0.0140 ca         1 ZPC       0.302900
     19 N19         -0.6820    -3.5910    -0.5260 nb         1 ZPC      -0.586000
     20 C20          0.2920    -2.6360    -0.5470 ca         1 ZPC       0.283300
     21 C21          1.9750     0.6150    -1.3160 ca         1 ZPC       0.482900
     22 N22          1.1640     1.1400    -2.2610 nb         1 ZPC      -0.666000
     23 C23          1.5120     2.3190    -2.8330 ca         1 ZPC       0.374900
     24 C24          2.6880     3.0180    -2.5020 ca         1 ZPC       0.036000
     25 Cl           3.0850     4.5470    -3.2820 cl         1 ZPC      -0.177000
     26 C26          3.5420     2.4730    -1.5340 ca         1 ZPC      -0.053000
     27 C27          3.1810     1.2500    -0.9400 ca         1 ZPC      -0.170000
     28 H01         -6.7350     1.7690     3.0120 h1         1 ZPC       0.034367
     29 H01A        -5.3710     2.2460     4.0440 h1         1 ZPC       0.034367
     30 H01B        -5.7210     3.1600     2.5570 h1         1 ZPC       0.034367
     31 H03         -6.3130     0.7320     0.8110 h1         1 ZPC       0.042450
     32 H03A        -5.2150     2.0170     0.2970 h1         1 ZPC       0.042450
     33 H04         -4.6700    -0.9820     0.4440 h1         1 ZPC       0.073950
     34 H04A        -4.6720     0.0550    -0.9850 h1         1 ZPC       0.073950
     35 H06         -2.2950    -0.1500     2.2200 h1         1 ZPC       0.073950
     36 H06A        -1.4730     1.2000     1.4290 h1         1 ZPC       0.073950
     37 H07         -3.3250     2.6810     1.7330 h1         1 ZPC       0.042450
     38 H07A        -3.0540     1.8670     3.2770 h1         1 ZPC       0.042450
     39 H11         -0.0410    -1.1350    -2.1250 h2         1 ZPC       0.114700
     40 H17          1.3030    -6.0120     0.8620 h4         1 ZPC       0.040100
     41 H18         -1.0510    -5.5820     0.0180 h4         1 ZPC       0.039100
     42 H23          0.8290     2.7120    -3.5840 h4         1 ZPC       0.040100
     43 H26          4.4590     2.9850    -1.2500 ha         1 ZPC       0.139000
     44 H27          3.8250     0.8340    -0.1740 ha         1 ZPC       0.145000
@<TRIPOS>BOND
     1     1     2 1   
     2     1    28 1   
     3     1    29 1   
     4     1    30 1   
     5     2     3 1   
     6     2     7 1   
     7     3     4 1   
     8     3    31 1   
     9     3    32 1   
    10     4     5 1   
    11     4    33 1   
    12     4    34 1   
    13     5     6 1   
    14     5     8 1   
    15     6     7 1   
    16     6    35 1   
    17     6    36 1   
    18     7    37 1   
    19     7    38 1   
    20     8     9 2   
    21     8    10 1   
    22    10    11 1   
    23    11    12 1   
    24    11    20 1   
    25    11    39 1   
    26    12    13 1   
    27    12    21 1   
    28    13    14 2   
    29    13    15 1   
    30    15    16 ar  
    31    15    20 ar  
    32    16    17 ar  
    33    17    18 ar  
    34    17    40 1   
    35    18    19 ar  
    36    18    41 1   
    37    19    20 ar  
    38    21    22 ar  
    39    21    27 ar  
    40    22    23 ar  
    41    23    24 ar  
    42    23    42 1   
    43    24    25 1   
    44    24    26 ar  
    45    26    27 ar  
    46    26    43 1   
    47    27    44 1   
@<TRIPOS>SUBSTRUCTURE
     1 ZPC         1 TEMP              0 ****  ****    0 ROOT
