@<TRIPOS>MOLECULE
ZPE
  116   115     1     0     0
SMALL
No Charge or Current Charge


@<TRIPOS>ATOM
      1 N            1.0850    -5.1890     0.9570 n8         1 ZPE      -0.996200
      2 P           -1.2210    -3.7180    -1.4600 p5         1 ZPE       1.396800
      3 C           -5.0740    -4.0600    -0.8450 c          1 ZPE       0.604100
      4 O           -5.3240    -5.2530    -0.9660 o          1 ZPE      -0.511000
      5 C1          -2.4390    -5.0320     0.5200 c3         1 ZPE       0.214600
      6 C2          -3.7250    -4.3970     1.1490 c3         1 ZPE       0.147300
      7 O2          -4.3870    -3.5150     0.2100 os         1 ZPE      -0.423100
      8 C3          -3.5450    -3.6320     2.4970 c3         1 ZPE       0.176600
      9 O3          -2.6630    -2.4930     2.3570 os         1 ZPE      -0.432100
     10 C4           1.2680    -4.7280    -1.5500 c3         1 ZPE       0.223600
     11 C5           1.6280    -4.2930    -0.0890 c3         1 ZPE       0.144800
     12 CB          -1.3280    -2.6420     2.6350 c          1 ZPE       0.625100
     13 OB          -0.8330    -3.6320     3.1600 o          1 ZPE      -0.498000
     14 C10         -5.7100    -2.9760    -1.7160 c3         1 ZPE      -0.143400
     15 C1B         -0.5540    -1.3600     2.3150 c3         1 ZPE      -0.136400
     16 O1P         -0.6090    -2.3720    -1.6600 o          1 ZPE      -0.826000
     17 C11         -7.0890    -2.5430    -1.1640 c3         1 ZPE      -0.063400
     18 C2B          0.9310    -1.3440     2.7510 c3         1 ZPE      -0.062400
     19 O2P         -2.4390    -3.8910    -2.3020 o          1 ZPE      -0.826000
     20 C12         -7.7480    -1.4230    -1.9940 c3         1 ZPE      -0.050200
     21 C3B          1.6610    -0.0470     2.3410 c3         1 ZPE      -0.077400
     22 O3P         -1.5010    -4.0250     0.0990 os         1 ZPE      -0.587400
     23 C13         -9.0890    -1.0020    -1.4230 c2         1 ZPE      -0.198200
     24 C4B          3.1530    -0.0400     2.7400 c3         1 ZPE      -0.073400
     25 O4P         -0.1540    -4.8940    -1.7520 os         1 ZPE      -0.603400
     26 C14         -9.3170     0.0150    -0.5740 c2         1 ZPE      -0.233200
     27 C5B          3.8820     1.2540     2.3170 c3         1 ZPE      -0.074400
     28 C6          -8.2810     0.9430     0.0330 c3         1 ZPE      -0.039200
     29 C6B          5.3800     1.2560     2.6910 c3         1 ZPE      -0.074400
     30 C7          -8.1730     2.2760    -0.7370 c3         1 ZPE      -0.072400
     31 C7B          6.1050     2.5510     2.2630 c3         1 ZPE      -0.075400
     32 C8          -7.1170     3.2350    -0.1430 c3         1 ZPE      -0.075400
     33 C8B          7.6110     2.5440     2.6070 c3         1 ZPE      -0.071400
     34 C9          -7.0120     4.5700    -0.9130 c3         1 ZPE      -0.074400
     35 C9B          8.3360     3.8320     2.1660 c3         1 ZPE      -0.045200
     36 CA          -5.9580     5.5290    -0.3170 c3         1 ZPE      -0.074400
     37 CAA          9.8230     3.7840     2.4640 c2         1 ZPE      -0.210200
     38 C15         -5.8560     6.8670    -1.0840 c3         1 ZPE      -0.075400
     39 CBA         10.8000     3.4210     1.6150 c2         1 ZPE      -0.221200
     40 CC          -4.8010     7.8250    -0.4880 c3         1 ZPE      -0.075400
     41 CCA         10.6260     2.9400     0.1860 c3         1 ZPE      -0.043200
     42 CD          -4.7010     9.1610    -1.2500 c3         1 ZPE      -0.088100
     43 CDA         10.7690     4.0860    -0.8370 c3         1 ZPE      -0.071400
     44 CEA         10.5510     3.6280    -2.2950 c3         1 ZPE      -0.076400
     45 CFA         10.6810     4.7790    -3.3170 c3         1 ZPE      -0.075400
     46 CGA         10.4500     4.3220    -4.7740 c3         1 ZPE      -0.075400
     47 CHA         10.5760     5.4710    -5.7940 c3         1 ZPE      -0.088100
     48 HN           1.2600    -4.7690     1.8760 hn         1 ZPE       0.392500
     49 HNA          0.0620    -5.1300     0.8710 hn         1 ZPE       0.392500
     50 H1          -1.9720    -5.6820     1.2710 h1         1 ZPE       0.039700
     51 H1A         -2.7270    -5.6790    -0.3190 h1         1 ZPE       0.039700
     52 H2          -4.3960    -5.2320     1.3900 h1         1 ZPE       0.048700
     53 H3          -4.5370    -3.2820     2.8090 h1         1 ZPE       0.052200
     54 H3A         -3.1990    -4.3240     3.2760 h1         1 ZPE       0.052200
     55 H4           1.6660    -3.9790    -2.2480 h1         1 ZPE       0.028200
     56 H4A          1.7810    -5.6740    -1.7660 h1         1 ZPE       0.028200
     57 H5           1.2550    -3.2790     0.1020 h1         1 ZPE       0.011200
     58 H5A          2.7200    -4.2700     0.0180 h1         1 ZPE       0.011200
     59 H10         -5.0580    -2.0940    -1.7100 hc         1 ZPE       0.077200
     60 H1'A        -5.8320    -3.3590    -2.7350 hc         1 ZPE       0.077200
     61 H1B         -0.6680    -1.1800     1.2400 hc         1 ZPE       0.079200
     62 H1BA        -1.1170    -0.5150     2.7280 hc         1 ZPE       0.079200
     63 H11         -7.7570    -3.4130    -1.1370 hc         1 ZPE       0.052200
     64 H2'A        -6.9720    -2.1990    -0.1290 hc         1 ZPE       0.052200
     65 H2B          0.9900    -1.4670     3.8400 hc         1 ZPE       0.049200
     66 H2BA         1.4480    -2.2020     2.3030 hc         1 ZPE       0.049200
     67 H12         -7.0650    -0.5660    -2.0440 hc         1 ZPE       0.046700
     68 H3'A        -7.8780    -1.7650    -3.0290 hc         1 ZPE       0.046700
     69 H3B          1.5790     0.0830     1.2550 hc         1 ZPE       0.037700
     70 H3BA         1.1590     0.8110     2.8060 hc         1 ZPE       0.037700
     71 H13         -9.9270    -1.6050    -1.7800 ha         1 ZPE       0.168000
     72 H4B          3.2380    -0.1640     3.8270 hc         1 ZPE       0.036700
     73 H4BA         3.6530    -0.9020     2.2780 hc         1 ZPE       0.036700
     74 H14        -10.3380     0.2220    -0.2460 ha         1 ZPE       0.159000
     75 H5B          3.7830     1.3840     1.2320 hc         1 ZPE       0.035700
     76 H5BA         3.3910     2.1140     2.7900 hc         1 ZPE       0.035700
     77 H6          -8.5390     1.1480     1.0790 hc         1 ZPE       0.042700
     78 H6'A        -7.2950     0.4630     0.0550 hc         1 ZPE       0.042700
     79 H6B          5.4820     1.1260     3.7760 hc         1 ZPE       0.037700
     80 H6BA         5.8700     0.3950     2.2180 hc         1 ZPE       0.037700
     81 H7          -7.9210     2.0650    -1.7830 hc         1 ZPE       0.038700
     82 H7'A        -9.1520     2.7700    -0.7360 hc         1 ZPE       0.038700
     83 H7B          5.9850     2.6890     1.1810 hc         1 ZPE       0.035700
     84 H7BA         5.6270     3.4100     2.7510 hc         1 ZPE       0.035700
     85 H8          -7.3680     3.4420     0.9050 hc         1 ZPE       0.037200
     86 H8'A        -6.1380     2.7390    -0.1470 hc         1 ZPE       0.037200
     87 H8B          7.7370     2.4120     3.6890 hc         1 ZPE       0.039700
     88 H8BA         8.0860     1.6820     2.1210 hc         1 ZPE       0.039700
     89 H9          -6.7600     4.3630    -1.9600 hc         1 ZPE       0.036700
     90 H9'A        -7.9920     5.0640    -0.9110 hc         1 ZPE       0.036700
     91 H9B          8.1630     3.9890     1.0940 hc         1 ZPE       0.043700
     92 H9BA         7.8850     4.6950     2.6720 hc         1 ZPE       0.043700
     93 HA          -6.2090     5.7340     0.7310 hc         1 ZPE       0.036700
     94 HA'A        -4.9780     5.0360    -0.3220 hc         1 ZPE       0.036700
     95 HAA         10.0790     4.1020     3.4770 ha         1 ZPE       0.163000
     96 HB          -5.6050     6.6630    -2.1320 hc         1 ZPE       0.036200
     97 HB'A        -6.8350     7.3610    -1.0780 hc         1 ZPE       0.036200
     98 HBA         11.8390     3.4410     1.9490 ha         1 ZPE       0.162000
     99 HC          -5.0470     8.0310     0.5610 hc         1 ZPE       0.036700
    100 HC'A        -3.8190     7.3360    -0.4970 hc         1 ZPE       0.036700
    101 HCA         11.3670     2.1610    -0.0350 hc         1 ZPE       0.045200
    102 HCAA         9.6450     2.4680     0.0560 hc         1 ZPE       0.045200
    103 HD          -4.4220     8.9900    -2.2970 hc         1 ZPE       0.029700
    104 HD'A        -5.6600     9.6930    -1.2300 hc         1 ZPE       0.029700
    105 HD'B        -3.9410     9.8050    -0.7930 hc         1 ZPE       0.029700
    106 HDA         10.0430     4.8730    -0.5950 hc         1 ZPE       0.038200
    107 HDAA        11.7670     4.5320    -0.7410 hc         1 ZPE       0.038200
    108 HEA         11.2800     2.8440    -2.5400 hc         1 ZPE       0.038200
    109 HEAA         9.5540     3.1780    -2.3860 hc         1 ZPE       0.038200
    110 HFA          9.9570     5.5650    -3.0680 hc         1 ZPE       0.036200
    111 HFAA        11.6800     5.2250    -3.2330 hc         1 ZPE       0.036200
    112 HGA         11.1750     3.5380    -5.0290 hc         1 ZPE       0.037700
    113 HGAA         9.4520     3.8750    -4.8620 hc         1 ZPE       0.037700
    114 HHA          9.8390     6.2560    -5.5860 hc         1 ZPE       0.030367
    115 HHAA        11.5780     5.9160    -5.7560 hc         1 ZPE       0.030367
    116 HHAB        10.4030     5.0990    -6.8110 hc         1 ZPE       0.030367
@<TRIPOS>BOND
     1     1    11 1   
     2     1    48 1   
     3     1    49 1   
     4     2    16 1   
     5     2    19 1   
     6     2    22 1   
     7     2    25 1   
     8     3     4 2   
     9     3     7 1   
    10     3    14 1   
    11     5     6 1   
    12     5    22 1   
    13     5    50 1   
    14     5    51 1   
    15     6     7 1   
    16     6     8 1   
    17     6    52 1   
    18     8     9 1   
    19     8    53 1   
    20     8    54 1   
    21     9    12 1   
    22    10    11 1   
    23    10    25 1   
    24    10    55 1   
    25    10    56 1   
    26    11    57 1   
    27    11    58 1   
    28    12    13 2   
    29    12    15 1   
    30    14    17 1   
    31    14    59 1   
    32    14    60 1   
    33    15    18 1   
    34    15    61 1   
    35    15    62 1   
    36    17    20 1   
    37    17    63 1   
    38    17    64 1   
    39    18    21 1   
    40    18    65 1   
    41    18    66 1   
    42    20    23 1   
    43    20    67 1   
    44    20    68 1   
    45    21    24 1   
    46    21    69 1   
    47    21    70 1   
    48    23    26 2   
    49    23    71 1   
    50    24    27 1   
    51    24    72 1   
    52    24    73 1   
    53    26    28 1   
    54    26    74 1   
    55    27    29 1   
    56    27    75 1   
    57    27    76 1   
    58    28    30 1   
    59    28    77 1   
    60    28    78 1   
    61    29    31 1   
    62    29    79 1   
    63    29    80 1   
    64    30    32 1   
    65    30    81 1   
    66    30    82 1   
    67    31    33 1   
    68    31    83 1   
    69    31    84 1   
    70    32    34 1   
    71    32    85 1   
    72    32    86 1   
    73    33    35 1   
    74    33    87 1   
    75    33    88 1   
    76    34    36 1   
    77    34    89 1   
    78    34    90 1   
    79    35    37 1   
    80    35    91 1   
    81    35    92 1   
    82    36    38 1   
    83    36    93 1   
    84    36    94 1   
    85    37    39 2   
    86    37    95 1   
    87    38    40 1   
    88    38    96 1   
    89    38    97 1   
    90    39    41 1   
    91    39    98 1   
    92    40    42 1   
    93    40    99 1   
    94    40   100 1   
    95    41    43 1   
    96    41   101 1   
    97    41   102 1   
    98    42   103 1   
    99    42   104 1   
   100    42   105 1   
   101    43    44 1   
   102    43   106 1   
   103    43   107 1   
   104    44    45 1   
   105    44   108 1   
   106    44   109 1   
   107    45    46 1   
   108    45   110 1   
   109    45   111 1   
   110    46    47 1   
   111    46   112 1   
   112    46   113 1   
   113    47   114 1   
   114    47   115 1   
   115    47   116 1   
@<TRIPOS>SUBSTRUCTURE
     1 ZPE         1 TEMP              0 ****  ****    0 ROOT
