@<TRIPOS>MOLECULE
ZPE
  116   115     1     0     0
SMALL
bcc


@<TRIPOS>ATOM
      1 N            3.2160    -4.3880     0.3980 n8         1 ZPE      -0.885800
      2 P           -0.8730    -4.5040    -0.5120 p5         1 ZPE       1.396800
      3 C           -5.2200    -2.9380     0.6480 c          1 ZPE       0.653100
      4 O           -5.8010    -3.9940     0.6160 o          1 ZPE      -0.560000
      5 C1          -2.7040    -4.6480     1.3630 c3         1 ZPE       0.191400
      6 C2          -3.6140    -3.7690     2.2030 c3         1 ZPE       0.124100
      7 O2          -4.1560    -2.7050     1.4110 os         1 ZPE      -0.399900
      8 C3          -2.9720    -3.1340     3.4190 c3         1 ZPE       0.153400
      9 O3          -1.9350    -2.2230     3.0790 os         1 ZPE      -0.408900
     10 C4           1.5050    -3.6430    -1.1820 c3         1 ZPE       0.200400
     11 C5           2.8300    -3.3330    -0.5230 c3         1 ZPE       0.144800
     12 CB          -0.6630    -2.6240     3.1400 c          1 ZPE       0.674100
     13 OB          -0.3150    -3.6860     3.5870 o          1 ZPE      -0.547000
     14 C10         -5.5820    -1.7280    -0.1690 c3         1 ZPE      -0.143400
     15 C1B          0.2560    -1.5660     2.6000 c3         1 ZPE      -0.136400
     16 O1P         -1.4460    -4.0490    -1.8190 o          1 ZPE      -0.826000
     17 C11         -6.9650    -1.8080    -0.7950 c3         1 ZPE      -0.063400
     18 C2B          1.7220    -1.8140     2.9100 c3         1 ZPE      -0.062400
     19 O2P         -0.6570    -5.9680    -0.2690 o          1 ZPE      -0.826000
     20 C12         -7.2690    -0.5680    -1.6370 c3         1 ZPE      -0.050200
     21 C3B          2.6110    -0.6970     2.3800 c3         1 ZPE      -0.077400
     22 O3P         -1.7280    -3.8550     0.7300 os         1 ZPE      -0.564200
     23 C13         -8.6290    -0.6340    -2.2590 c2         1 ZPE      -0.148200
     24 C4B          4.0940    -0.9600     2.6060 c3         1 ZPE      -0.073400
     25 O4P          0.4900    -3.6530    -0.1900 os         1 ZPE      -0.580200
     26 C14         -9.6710     0.1580    -2.0090 c2         1 ZPE      -0.183200
     27 C5B          4.9810     0.1780     2.1200 c3         1 ZPE      -0.074400
     28 C6          -9.7200     1.3260    -1.0740 c3         1 ZPE      -0.039200
     29 C6B          6.4660    -0.0630     2.3600 c3         1 ZPE      -0.074400
     30 C7          -9.8640     2.6550    -1.8170 c3         1 ZPE      -0.072400
     31 C7B          7.3380     1.1030     1.9120 c3         1 ZPE      -0.075400
     32 C8          -9.9220     3.8540    -0.8800 c3         1 ZPE      -0.075400
     33 C8B          8.8260     0.8740     2.1430 c3         1 ZPE      -0.071400
     34 C9         -10.0640     5.1810    -1.6150 c3         1 ZPE      -0.074400
     35 C9B          9.6790     2.0650     1.7020 c3         1 ZPE      -0.045200
     36 CA         -10.0900     6.3870    -0.6830 c3         1 ZPE      -0.074400
     37 CAA         11.1370     1.8570     1.9670 c2         1 ZPE      -0.160200
     38 C15        -10.2390     7.7110    -1.4210 c3         1 ZPE      -0.075400
     39 CBA         12.1130     1.7400     1.0660 c2         1 ZPE      -0.171200
     40 CC         -10.2490     8.9210    -0.4940 c3         1 ZPE      -0.075400
     41 CCA         11.9840     1.8210    -0.4240 c3         1 ZPE      -0.043200
     42 CD         -10.4100    10.2360    -1.2440 c3         1 ZPE      -0.088100
     43 CDA         12.5060     3.1490    -0.9780 c3         1 ZPE      -0.071400
     44 CEA         12.4440     3.2230    -2.4980 c3         1 ZPE      -0.076400
     45 CFA         12.9470     4.5490    -3.0540 c3         1 ZPE      -0.075400
     46 CGA         12.8730     4.6340    -4.5740 c3         1 ZPE      -0.075400
     47 CHA         13.3790     5.9640    -5.1150 c3         1 ZPE      -0.088100
     48 HN           4.0950    -4.1520     0.8410 hn         1 ZPE       0.337300
     49 HNA          2.5340    -4.4500     1.1430 hn         1 ZPE       0.337300
     50 H1          -2.2530    -5.3980     2.0210 h1         1 ZPE       0.039700
     51 H1A         -3.3200    -5.1930     0.6390 h1         1 ZPE       0.039700
     52 H2          -4.4180    -4.4050     2.5870 h1         1 ZPE       0.048700
     53 H3          -3.7200    -2.5560     3.9630 h1         1 ZPE       0.052200
     54 H3A         -2.6140    -3.9240     4.0800 h1         1 ZPE       0.052200
     55 H4           1.2920    -2.8870    -1.9440 h1         1 ZPE       0.028200
     56 H4A          1.5790    -4.6130    -1.6890 h1         1 ZPE       0.028200
     57 H5           2.7720    -2.3370    -0.0630 h1         1 ZPE       0.011200
     58 H5A          3.5820    -3.2630    -1.3130 h1         1 ZPE       0.011200
     59 H10         -5.4900    -0.8360     0.4560 hc         1 ZPE       0.077200
     60 H1'A        -4.8170    -1.6230    -0.9470 hc         1 ZPE       0.077200
     61 H1B          0.1050    -1.5380     1.5170 hc         1 ZPE       0.079200
     62 H1BA        -0.0630    -0.5910     2.9770 hc         1 ZPE       0.079200
     63 H11         -7.0420    -2.7010    -1.4190 hc         1 ZPE       0.052200
     64 H2'A        -7.7210    -1.9050    -0.0130 hc         1 ZPE       0.052200
     65 H2B          1.8680    -1.9100     3.9900 hc         1 ZPE       0.049200
     66 H2BA         2.0300    -2.7660     2.4710 hc         1 ZPE       0.049200
     67 H12         -7.1610     0.3270    -1.0200 hc         1 ZPE       0.046700
     68 H3'A        -6.5170    -0.4880    -2.4300 hc         1 ZPE       0.046700
     69 H3B          2.4280    -0.5580     1.3090 hc         1 ZPE       0.037700
     70 H3BA         2.3310     0.2470     2.8590 hc         1 ZPE       0.037700
     71 H13         -8.7660    -1.4340    -2.9820 ha         1 ZPE       0.118000
     72 H4B          4.2730    -1.1320     3.6740 hc         1 ZPE       0.036700
     73 H4BA         4.3790    -1.8900     2.1000 hc         1 ZPE       0.036700
     74 H14        -10.5910    -0.0340    -2.5560 ha         1 ZPE       0.109000
     75 H5B          4.8090     0.3440     1.0510 hc         1 ZPE       0.035700
     76 H5BA         4.6810     1.1050     2.6210 hc         1 ZPE       0.035700
     77 H6         -10.5740     1.2080    -0.3980 hc         1 ZPE       0.042700
     78 H6'A        -8.8320     1.3580    -0.4390 hc         1 ZPE       0.042700
     79 H6B          6.6350    -0.2550     3.4250 hc         1 ZPE       0.037700
     80 H6BA         6.7780    -0.9740     1.8360 hc         1 ZPE       0.037700
     81 H7          -9.0210     2.7720    -2.5070 hc         1 ZPE       0.038700
     82 H7'A       -10.7650     2.6310    -2.4380 hc         1 ZPE       0.038700
     83 H7B          7.1640     1.3010     0.8480 hc         1 ZPE       0.035700
     84 H7BA         7.0250     2.0100     2.4420 hc         1 ZPE       0.035700
     85 H8         -10.7580     3.7320    -0.1830 hc         1 ZPE       0.037200
     86 H8'A        -9.0150     3.8750    -0.2640 hc         1 ZPE       0.037200
     87 H8B          9.0040     0.6670     3.2030 hc         1 ZPE       0.039700
     88 H8BA         9.1490    -0.0200     1.6000 hc         1 ZPE       0.039700
     89 H9          -9.2380     5.2930    -2.3260 hc         1 ZPE       0.036700
     90 H9'A       -10.9810     5.1670    -2.2160 hc         1 ZPE       0.036700
     91 H9B          9.4960     2.2710     0.6450 hc         1 ZPE       0.043700
     92 H9BA         9.3430     2.9540     2.2470 hc         1 ZPE       0.043700
     93 HA         -10.9120     6.2740     0.0320 hc         1 ZPE       0.036700
     94 HA'A        -9.1710     6.4030    -0.0870 hc         1 ZPE       0.036700
     95 HAA         11.4090     1.7830     3.0170 ha         1 ZPE       0.113000
     96 HB          -9.4230     7.8190    -2.1440 hc         1 ZPE       0.036200
     97 HB'A       -11.1630     7.6990    -2.0090 hc         1 ZPE       0.036200
     98 HBA         13.1250     1.5980     1.4360 ha         1 ZPE       0.112000
     99 HC         -11.0590     8.8120     0.2340 hc         1 ZPE       0.036700
    100 HC'A        -9.3210     8.9400     0.0860 hc         1 ZPE       0.036700
    101 HCA         12.5530     1.0030    -0.8770 hc         1 ZPE       0.045200
    102 HCAA        10.9470     1.6810    -0.7380 hc         1 ZPE       0.045200
    103 HD          -9.6020    10.3820    -1.9640 hc         1 ZPE       0.029700
    104 HD'A       -11.3510    10.2590    -1.7990 hc         1 ZPE       0.029700
    105 HD'B       -10.4060    11.0910    -0.5670 hc         1 ZPE       0.029700
    106 HDA         11.9230     3.9690    -0.5460 hc         1 ZPE       0.038200
    107 HDAA        13.5380     3.3010    -0.6460 hc         1 ZPE       0.038200
    108 HEA         13.0290     2.4010    -2.9270 hc         1 ZPE       0.038200
    109 HEAA        11.4110     3.0610    -2.8270 hc         1 ZPE       0.038200
    110 HFA         12.3670     5.3690    -2.6170 hc         1 ZPE       0.036200
    111 HFAA        13.9830     4.7080    -2.7330 hc         1 ZPE       0.036200
    112 HGA         13.4530     3.8150    -5.0100 hc         1 ZPE       0.037700
    113 HGAA        11.8390     4.4770    -4.8950 hc         1 ZPE       0.037700
    114 HHA         12.8090     6.7990    -4.7030 hc         1 ZPE       0.030367
    115 HHAA        14.4280     6.1220    -4.8560 hc         1 ZPE       0.030367
    116 HHAB        13.2980     6.0130    -6.2020 hc         1 ZPE       0.030367
@<TRIPOS>BOND
     1     1    11 1   
     2     1    48 1   
     3     1    49 1   
     4     2    16 1   
     5     2    19 1   
     6     2    22 1   
     7     2    25 1   
     8     3     4 2   
     9     3     7 1   
    10     3    14 1   
    11     5     6 1   
    12     5    22 1   
    13     5    50 1   
    14     5    51 1   
    15     6     7 1   
    16     6     8 1   
    17     6    52 1   
    18     8     9 1   
    19     8    53 1   
    20     8    54 1   
    21     9    12 1   
    22    10    11 1   
    23    10    25 1   
    24    10    55 1   
    25    10    56 1   
    26    11    57 1   
    27    11    58 1   
    28    12    13 2   
    29    12    15 1   
    30    14    17 1   
    31    14    59 1   
    32    14    60 1   
    33    15    18 1   
    34    15    61 1   
    35    15    62 1   
    36    17    20 1   
    37    17    63 1   
    38    17    64 1   
    39    18    21 1   
    40    18    65 1   
    41    18    66 1   
    42    20    23 1   
    43    20    67 1   
    44    20    68 1   
    45    21    24 1   
    46    21    69 1   
    47    21    70 1   
    48    23    26 2   
    49    23    71 1   
    50    24    27 1   
    51    24    72 1   
    52    24    73 1   
    53    26    28 1   
    54    26    74 1   
    55    27    29 1   
    56    27    75 1   
    57    27    76 1   
    58    28    30 1   
    59    28    77 1   
    60    28    78 1   
    61    29    31 1   
    62    29    79 1   
    63    29    80 1   
    64    30    32 1   
    65    30    81 1   
    66    30    82 1   
    67    31    33 1   
    68    31    83 1   
    69    31    84 1   
    70    32    34 1   
    71    32    85 1   
    72    32    86 1   
    73    33    35 1   
    74    33    87 1   
    75    33    88 1   
    76    34    36 1   
    77    34    89 1   
    78    34    90 1   
    79    35    37 1   
    80    35    91 1   
    81    35    92 1   
    82    36    38 1   
    83    36    93 1   
    84    36    94 1   
    85    37    39 2   
    86    37    95 1   
    87    38    40 1   
    88    38    96 1   
    89    38    97 1   
    90    39    41 1   
    91    39    98 1   
    92    40    42 1   
    93    40    99 1   
    94    40   100 1   
    95    41    43 1   
    96    41   101 1   
    97    41   102 1   
    98    42   103 1   
    99    42   104 1   
   100    42   105 1   
   101    43    44 1   
   102    43   106 1   
   103    43   107 1   
   104    44    45 1   
   105    44   108 1   
   106    44   109 1   
   107    45    46 1   
   108    45   110 1   
   109    45   111 1   
   110    46    47 1   
   111    46   112 1   
   112    46   113 1   
   113    47   114 1   
   114    47   115 1   
   115    47   116 1   
@<TRIPOS>SUBSTRUCTURE
     1 ZPE         1 TEMP              0 ****  ****    0 ROOT
