@<TRIPOS>MOLECULE
ZPF
   31    32     1     0     0
SMALL
No Charge or Current Charge


@<TRIPOS>ATOM
      1 C4           0.1040     1.2930     0.7470 c6         1 ZPF       0.118300
      2 C7          -1.5220    -1.1430     1.1750 c5         1 ZPF       0.128600
      3 C6          -1.9250    -0.1360     0.0430 c5         1 ZPF       0.142000
      4 C9          -3.4470    -0.0980    -0.3180 c3         1 ZPF       0.182600
      5 C8           0.1320    -0.9740    -0.4820 c5         1 ZPF       0.355300
      6 O1           3.1190    -1.1000    -1.4010 o          1 ZPF      -0.594100
      7 C2           3.2760    -0.5780    -0.3080 c          1 ZPF       0.607100
      8 C1           4.5850    -0.6660     0.4640 c3         1 ZPF      -0.181100
      9 N            2.2830     0.1410     0.3150 ns         1 ZPF      -0.503900
     10 C3           0.9110     0.3650    -0.2060 c6         1 ZPF       0.065700
     11 O6           0.6320     2.6360     0.7290 oh         1 ZPF      -0.648000
     12 C5          -1.4090     1.3160     0.3690 c6         1 ZPF       0.125300
     13 O5          -1.5990     2.2290    -0.7270 oh         1 ZPF      -0.701000
     14 O4          -4.0130    -1.4160    -0.4790 oh         1 ZPF      -0.710000
     15 O3          -1.1470    -0.6690    -1.0570 os         1 ZPF      -0.406000
     16 O2          -0.2300    -1.6660     0.7420 os         1 ZPF      -0.476000
     17 H2           0.1930     0.8850     1.7650 h1         1 ZPF       0.040700
     18 H9          -1.4330    -0.6690     2.1620 h1         1 ZPF       0.063700
     19 H10         -2.2250    -1.9810     1.2630 h1         1 ZPF       0.063700
     20 H11         -3.9780     0.4370     0.4820 h1         1 ZPF       0.040200
     21 H12         -3.5770     0.4850    -1.2400 h1         1 ZPF       0.040200
     22 H4           0.6990    -1.6370    -1.1490 h2         1 ZPF       0.116700
     23 H5           5.3500    -1.2420    -0.0680 hc         1 ZPF       0.061033
     24 H7           4.9300     0.3480     0.6970 hc         1 ZPF       0.061033
     25 H6           4.3850    -1.0780     1.4590 hc         1 ZPF       0.061033
     26 H8           2.5250     0.5510     1.2090 hn         1 ZPF       0.313500
     27 H1           1.0060     0.8770    -1.1750 h1         1 ZPF       0.122700
     28 H15          0.6670     2.9490     1.6610 ho         1 ZPF       0.445000
     29 H3          -1.9620     1.6880     1.2440 h1         1 ZPF       0.032700
     30 H14         -0.8450     2.8630    -0.6290 ho         1 ZPF       0.524000
     31 H13         -4.9370    -1.2950    -0.8000 ho         1 ZPF       0.508000
@<TRIPOS>BOND
     1     1    10 1   
     2     1    11 1   
     3     1    12 1   
     4     1    17 1   
     5     2     3 1   
     6     2    16 1   
     7     2    18 1   
     8     2    19 1   
     9     3     4 1   
    10     3    12 1   
    11     3    15 1   
    12     4    14 1   
    13     4    20 1   
    14     4    21 1   
    15     5    10 1   
    16     5    15 1   
    17     5    16 1   
    18     5    22 1   
    19     6     7 2   
    20     7     8 1   
    21     7     9 1   
    22     8    23 1   
    23     8    24 1   
    24     8    25 1   
    25     9    10 1   
    26     9    26 1   
    27    10    27 1   
    28    11    28 1   
    29    12    13 1   
    30    12    29 1   
    31    13    30 1   
    32    14    31 1   
@<TRIPOS>SUBSTRUCTURE
     1 ZPF         1 TEMP              0 ****  ****    0 ROOT
