@<TRIPOS>MOLECULE
ZPF
   31    32     1     0     0
SMALL
bcc


@<TRIPOS>ATOM
      1 C4           0.1930     1.2250     0.5520 c6         1 ZPF       0.095100
      2 C7          -1.5950    -0.8770     1.4020 c5         1 ZPF       0.105400
      3 C6          -1.9210    -0.0860     0.1250 c5         1 ZPF       0.118800
      4 C9          -3.3970    -0.0300    -0.2180 c3         1 ZPF       0.159400
      5 C8          -0.0180    -1.1400    -0.2210 c5         1 ZPF       0.308900
      6 O1           3.3850    -0.0270    -1.5490 o          1 ZPF      -0.594100
      7 C2           3.3250    -0.2350    -0.3470 c          1 ZPF       0.674100
      8 C1           4.5380    -0.5790     0.4840 c3         1 ZPF      -0.181100
      9 N            2.1730    -0.1940     0.3520 ns         1 ZPF      -0.570900
     10 C3           0.8840     0.1010    -0.2170 c6         1 ZPF       0.065700
     11 O6           0.8520     2.4340     0.2570 oh         1 ZPF      -0.585800
     12 C5          -1.3030     1.3170     0.1870 c6         1 ZPF       0.102100
     13 O5          -1.4750     1.9280    -1.0630 oh         1 ZPF      -0.578800
     14 O4          -3.9150    -1.3360    -0.2670 oh         1 ZPF      -0.587800
     15 O3          -1.2200    -0.8390    -0.8540 os         1 ZPF      -0.359600
     16 O2          -0.3600    -1.5150     1.0950 os         1 ZPF      -0.429600
     17 H2           0.2710     1.0110     1.6250 h1         1 ZPF       0.040700
     18 H9          -1.4960    -0.2340     2.2800 h1         1 ZPF       0.063700
     19 H10         -2.3530    -1.6320     1.6160 h1         1 ZPF       0.063700
     20 H11         -3.8910     0.5800     0.5500 h1         1 ZPF       0.040200
     21 H12         -3.5270     0.4900    -1.1730 h1         1 ZPF       0.040200
     22 H4           0.4680    -1.9780    -0.7260 h2         1 ZPF       0.116700
     23 H5           5.4470    -0.4440    -0.0970 hc         1 ZPF       0.061033
     24 H7           4.5950     0.0400     1.3790 hc         1 ZPF       0.061033
     25 H6           4.4870    -1.6190     0.8110 hc         1 ZPF       0.061033
     26 H8           2.2100    -0.3910     1.3410 hn         1 ZPF       0.313500
     27 H1           1.0380     0.4020    -1.2550 h1         1 ZPF       0.122700
     28 H15          0.6880     3.0600     0.9690 ho         1 ZPF       0.406000
     29 H3          -1.8130     1.8860     0.9820 h1         1 ZPF       0.032700
     30 H14         -0.8590     2.6700    -1.1080 ho         1 ZPF       0.425000
     31 H13         -4.8610    -1.2740    -0.4250 ho         1 ZPF       0.409000
@<TRIPOS>BOND
     1     1    10 1   
     2     1    11 1   
     3     1    12 1   
     4     1    17 1   
     5     2     3 1   
     6     2    16 1   
     7     2    18 1   
     8     2    19 1   
     9     3     4 1   
    10     3    12 1   
    11     3    15 1   
    12     4    14 1   
    13     4    20 1   
    14     4    21 1   
    15     5    10 1   
    16     5    15 1   
    17     5    16 1   
    18     5    22 1   
    19     6     7 2   
    20     7     8 1   
    21     7     9 1   
    22     8    23 1   
    23     8    24 1   
    24     8    25 1   
    25     9    10 1   
    26     9    26 1   
    27    10    27 1   
    28    11    28 1   
    29    12    13 1   
    30    12    29 1   
    31    13    30 1   
    32    14    31 1   
@<TRIPOS>SUBSTRUCTURE
     1 ZPF         1 TEMP              0 ****  ****    0 ROOT
