@<TRIPOS>MOLECULE
ZPG
   73    72     1     0     0
SMALL
abcg2


@<TRIPOS>ATOM
      1 O29         -3.3360     3.1860    -0.9660 oh         1 ZPG      -0.698000
      2 C27         -2.2110     3.1800    -0.1120 c3         1 ZPG       0.164300
      3 C28         -1.7690     4.5870     0.2610 c3         1 ZPG      -0.130100
      4 C24         -2.4410     2.3460     1.1370 c3         1 ZPG       0.129600
      5 O23         -2.7400     1.0270     0.7690 os         1 ZPG      -0.431000
      6 C22         -2.8790     0.1310     1.8530 c3         1 ZPG       0.178300
      7 C26         -1.5310    -0.2530     2.4550 c3         1 ZPG      -0.123100
      8 C21         -3.6440    -1.0830     1.3620 c3         1 ZPG       0.169600
      9 O20         -2.8620    -1.7650     0.4240 os         1 ZPG      -0.431000
     10 C20         -3.4240    -2.9380    -0.1190 c3         1 ZPG       0.178300
     11 C25         -3.4490    -4.0900     0.8780 c3         1 ZPG      -0.119100
     12 C18         -2.6190    -3.2560    -1.3670 c3         1 ZPG       0.171600
     13 O17         -1.2990    -3.5270    -0.9890 os         1 ZPG      -0.445000
     14 C15         -0.3270    -3.5730    -2.0060 c3         1 ZPG       0.184300
     15 C16         -0.2710    -2.3120    -2.8650 c3         1 ZPG      -0.122100
     16 C14          1.0010    -3.8280    -1.3150 c3         1 ZPG       0.168600
     17 O13          1.3140    -2.7180    -0.5210 os         1 ZPG      -0.430000
     18 C11          2.4790    -2.8360     0.2590 c3         1 ZPG       0.180300
     19 C12          3.7510    -2.6670    -0.5640 c3         1 ZPG      -0.121100
     20 C10          2.3740    -1.8170     1.3780 c3         1 ZPG       0.166600
     21 O9           2.3430    -0.5220     0.8410 os         1 ZPG      -0.428000
     22 C7           2.2580     0.5030     1.8060 c3         1 ZPG       0.178300
     23 C8           3.6270     0.8640     2.3710 c3         1 ZPG      -0.118100
     24 C6           1.5620     1.6920     1.1740 c3         1 ZPG       0.159600
     25 O5           2.3400     2.2150     0.1300 os         1 ZPG      -0.425000
     26 C4           1.7920     3.3790    -0.4230 c3         1 ZPG       0.126600
     27 C2           2.6620     3.8810    -1.5620 c3         1 ZPG       0.168300
     28 C3           2.0120     5.0870    -2.2240 c3         1 ZPG      -0.130100
     29 O1           3.9810     4.1550    -1.1400 oh         1 ZPG      -0.701000
     30 HO29        -4.0530     3.6450    -0.5150 ho         1 ZPG       0.493000
     31 H27         -1.4140     2.7010    -0.6910 h1         1 ZPG       0.085700
     32 H281        -0.8730     4.5710     0.8820 hc         1 ZPG       0.041033
     33 H282        -1.5450     5.1740    -0.6300 hc         1 ZPG       0.041033
     34 H283        -2.5470     5.1100     0.8240 hc         1 ZPG       0.041033
     35 H241        -3.2580     2.7860     1.7330 h1         1 ZPG       0.017200
     36 H242        -1.5370     2.4010     1.7590 h1         1 ZPG       0.017200
     37 H22         -3.4990     0.5910     2.6380 h1         1 ZPG       0.024700
     38 H261        -0.8810    -0.7050     1.7060 hc         1 ZPG       0.045700
     39 H262        -1.0200     0.6120     2.8790 hc         1 ZPG       0.045700
     40 H263        -1.6720    -0.9690     3.2670 hc         1 ZPG       0.045700
     41 H211        -4.6050    -0.7690     0.9260 h1         1 ZPG       0.024200
     42 H212        -3.8820    -1.7030     2.2370 h1         1 ZPG       0.024200
     43 H20         -4.4560    -2.7440    -0.4540 h1         1 ZPG       0.027700
     44 H251        -2.4450    -4.3340     1.2240 hc         1 ZPG       0.041367
     45 H252        -4.0620    -3.8540     1.7490 hc         1 ZPG       0.041367
     46 H253        -3.8780    -4.9790     0.4150 hc         1 ZPG       0.041367
     47 H181        -2.6860    -2.3970    -2.0440 h1         1 ZPG       0.029200
     48 H182        -3.0780    -4.1110    -1.8870 h1         1 ZPG       0.029200
     49 H15         -0.5050    -4.4340    -2.6710 h1         1 ZPG       0.022700
     50 H161         0.6180    -2.3380    -3.4970 hc         1 ZPG       0.047033
     51 H162        -1.1300    -2.2270    -3.5290 hc         1 ZPG       0.047033
     52 H163        -0.2240    -1.4180    -2.2440 hc         1 ZPG       0.047033
     53 H141         1.7580    -4.0130    -2.0900 h1         1 ZPG       0.023200
     54 H142         0.9360    -4.7440    -0.7080 h1         1 ZPG       0.023200
     55 H11          2.5090    -3.8230     0.7490 h1         1 ZPG       0.026700
     56 H121         3.7720    -1.6980    -1.0630 hc         1 ZPG       0.043367
     57 H122         4.6310    -2.7370     0.0770 hc         1 ZPG       0.043367
     58 H123         3.8430    -3.4430    -1.3250 hc         1 ZPG       0.043367
     59 H101         3.2280    -1.9610     2.0540 h1         1 ZPG       0.025200
     60 H102         1.4640    -2.0130     1.9640 h1         1 ZPG       0.025200
     61 H7           1.6080     0.1830     2.6350 h1         1 ZPG       0.027700
     62 H81          4.2900     1.2360     1.5910 hc         1 ZPG       0.043033
     63 H82          3.5300     1.6360     3.1340 hc         1 ZPG       0.043033
     64 H83          4.1020     0.0020     2.8390 hc         1 ZPG       0.043033
     65 H61          1.3950     2.4480     1.9560 h1         1 ZPG       0.027700
     66 H62          0.5700     1.3820     0.8070 h1         1 ZPG       0.027700
     67 H41          1.6930     4.1670     0.3420 h1         1 ZPG       0.017200
     68 H42          0.7790     3.1900    -0.8100 h1         1 ZPG       0.017200
     69 H2           2.7540     3.0790    -2.3020 h1         1 ZPG       0.088700
     70 H31          2.6170     5.4430    -3.0580 hc         1 ZPG       0.042367
     71 H32          1.0240     4.8400    -2.6140 hc         1 ZPG       0.042367
     72 H33          1.8940     5.9110    -1.5150 hc         1 ZPG       0.042367
     73 HO1          3.9540     4.8970    -0.5260 ho         1 ZPG       0.492000
@<TRIPOS>BOND
     1     1     2 1   
     2     1    30 1   
     3     2     3 1   
     4     2     4 1   
     5     2    31 1   
     6     3    32 1   
     7     3    33 1   
     8     3    34 1   
     9     4     5 1   
    10     4    35 1   
    11     4    36 1   
    12     5     6 1   
    13     6     7 1   
    14     6     8 1   
    15     6    37 1   
    16     7    38 1   
    17     7    39 1   
    18     7    40 1   
    19     8     9 1   
    20     8    41 1   
    21     8    42 1   
    22     9    10 1   
    23    10    11 1   
    24    10    12 1   
    25    10    43 1   
    26    11    44 1   
    27    11    45 1   
    28    11    46 1   
    29    12    13 1   
    30    12    47 1   
    31    12    48 1   
    32    13    14 1   
    33    14    15 1   
    34    14    16 1   
    35    14    49 1   
    36    15    50 1   
    37    15    51 1   
    38    15    52 1   
    39    16    17 1   
    40    16    53 1   
    41    16    54 1   
    42    17    18 1   
    43    18    19 1   
    44    18    20 1   
    45    18    55 1   
    46    19    56 1   
    47    19    57 1   
    48    19    58 1   
    49    20    21 1   
    50    20    59 1   
    51    20    60 1   
    52    21    22 1   
    53    22    23 1   
    54    22    24 1   
    55    22    61 1   
    56    23    62 1   
    57    23    63 1   
    58    23    64 1   
    59    24    25 1   
    60    24    65 1   
    61    24    66 1   
    62    25    26 1   
    63    26    27 1   
    64    26    67 1   
    65    26    68 1   
    66    27    28 1   
    67    27    29 1   
    68    27    69 1   
    69    28    70 1   
    70    28    71 1   
    71    28    72 1   
    72    29    73 1   
@<TRIPOS>SUBSTRUCTURE
     1 ZPG         1 TEMP              0 ****  ****    0 ROOT
