@<TRIPOS>MOLECULE
ZPG
   73    72     1     0     0
SMALL
No Charge or Current Charge


@<TRIPOS>ATOM
      1 O29         -3.4400     3.1200    -0.8500 oh         1 ZPG      -0.698000
      2 C27         -2.2240     3.2280    -0.0990 c3         1 ZPG       0.164300
      3 C28         -1.8970     4.7160     0.1310 c3         1 ZPG      -0.130100
      4 C24         -2.3670     2.4300     1.2220 c3         1 ZPG       0.129600
      5 O23         -2.8740     1.1190     0.8890 os         1 ZPG      -0.431000
      6 C22         -3.0470     0.1930     1.9890 c3         1 ZPG       0.178300
      7 C26         -1.6620    -0.1810     2.5770 c3         1 ZPG      -0.123100
      8 C21         -3.8320    -1.0440     1.4650 c3         1 ZPG       0.169600
      9 O20         -3.0320    -1.7290     0.4760 os         1 ZPG      -0.431000
     10 C20         -3.5580    -2.9630    -0.0630 c3         1 ZPG       0.178300
     11 C25         -3.5350    -4.0590     1.0310 c3         1 ZPG      -0.119100
     12 C18         -2.7030    -3.3260    -1.3110 c3         1 ZPG       0.171600
     13 O17         -1.3280    -3.5210    -0.9050 os         1 ZPG      -0.445000
     14 C15         -0.3450    -3.7420    -1.9460 c3         1 ZPG       0.184300
     15 C16         -0.2940    -2.5210    -2.9000 c3         1 ZPG      -0.122100
     16 C14          1.0240    -4.0000    -1.2510 c3         1 ZPG       0.168600
     17 O13          1.3720    -2.8400    -0.4610 os         1 ZPG      -0.430000
     18 C11          2.6710    -2.8390     0.1660 c3         1 ZPG       0.180300
     19 C12          3.7500    -2.5480    -0.9030 c3         1 ZPG      -0.121100
     20 C10          2.6410    -1.7940     1.3180 c3         1 ZPG       0.166600
     21 O9           2.3530    -0.4810     0.7830 os         1 ZPG      -0.428000
     22 C7           2.1120     0.5580     1.7570 c3         1 ZPG       0.178300
     23 C8           3.4450     0.9370     2.4480 c3         1 ZPG      -0.118100
     24 C6           1.4200     1.7490     1.0370 c3         1 ZPG       0.159600
     25 O5           2.3380     2.3860     0.1270 os         1 ZPG      -0.425000
     26 C4           1.7780     3.4970    -0.5980 c3         1 ZPG       0.126600
     27 C2           2.8740     4.0610    -1.5400 c3         1 ZPG       0.168300
     28 C3           2.5040     5.4350    -2.1310 c3         1 ZPG      -0.130100
     29 O1           4.1040     4.1750    -0.8130 oh         1 ZPG      -0.701000
     30 HO29        -3.7730     2.2150    -0.6410 ho         1 ZPG       0.493000
     31 H27         -1.3950     2.7790    -0.6650 h1         1 ZPG       0.085700
     32 H281        -0.9680     4.8200     0.7050 hc         1 ZPG       0.041033
     33 H282        -1.7660     5.2350    -0.8260 hc         1 ZPG       0.041033
     34 H283        -2.7010     5.2120     0.6880 hc         1 ZPG       0.041033
     35 H241        -3.0580     2.9480     1.8990 h1         1 ZPG       0.017200
     36 H242        -1.3860     2.3730     1.7080 h1         1 ZPG       0.017200
     37 H22         -3.6500     0.6580     2.7810 h1         1 ZPG       0.024700
     38 H261        -0.9680    -0.4830     1.7830 hc         1 ZPG       0.045700
     39 H262        -1.2230     0.6570     3.1290 hc         1 ZPG       0.045700
     40 H263        -1.7610    -1.0190     3.2770 hc         1 ZPG       0.045700
     41 H211        -4.7870    -0.7170     1.0340 h1         1 ZPG       0.024200
     42 H212        -4.0500    -1.6980     2.3190 h1         1 ZPG       0.024200
     43 H20         -4.5940    -2.8210    -0.3990 h1         1 ZPG       0.027700
     44 H251        -2.5520    -4.1120     1.5140 hc         1 ZPG       0.041367
     45 H252        -4.2930    -3.8690     1.7990 hc         1 ZPG       0.041367
     46 H253        -3.7520    -5.0390     0.5900 hc         1 ZPG       0.041367
     47 H181        -2.7980    -2.5060    -2.0330 h1         1 ZPG       0.029200
     48 H182        -3.1010    -4.2370    -1.7770 h1         1 ZPG       0.029200
     49 H15         -0.6040    -4.6360    -2.5290 h1         1 ZPG       0.022700
     50 H161         0.5930    -2.5780    -3.5430 hc         1 ZPG       0.047033
     51 H162        -1.1700    -2.4940    -3.5570 hc         1 ZPG       0.047033
     52 H163        -0.2450    -1.5820    -2.3350 hc         1 ZPG       0.047033
     53 H141         1.7780    -4.1940    -2.0240 h1         1 ZPG       0.023200
     54 H142         0.9510    -4.8920    -0.6160 h1         1 ZPG       0.023200
     55 H11          2.8770    -3.8200     0.6170 h1         1 ZPG       0.026700
     56 H121         3.5070    -1.6390    -1.4680 hc         1 ZPG       0.043367
     57 H122         4.7270    -2.4020    -0.4270 hc         1 ZPG       0.043367
     58 H123         3.8460    -3.3810    -1.6080 hc         1 ZPG       0.043367
     59 H101         3.6110    -1.8030     1.8300 h1         1 ZPG       0.025200
     60 H102         1.8720    -2.0910     2.0430 h1         1 ZPG       0.025200
     61 H7           1.4150     0.1970     2.5250 h1         1 ZPG       0.027700
     62 H81          4.2220     1.1590     1.7080 hc         1 ZPG       0.043033
     63 H82          3.3070     1.8240     3.0780 hc         1 ZPG       0.043033
     64 H83          3.7990     0.1250     3.0930 hc         1 ZPG       0.043033
     65 H61          1.0770     2.4670     1.7930 h1         1 ZPG       0.027700
     66 H62          0.5370     1.3780     0.5000 h1         1 ZPG       0.027700
     67 H41          1.4500     4.2810     0.0980 h1         1 ZPG       0.017200
     68 H42          0.9120     3.1800    -1.1940 h1         1 ZPG       0.017200
     69 H2           2.9930     3.3500    -2.3700 h1         1 ZPG       0.088700
     70 H31          3.2890     5.7870    -2.8100 hc         1 ZPG       0.042367
     71 H32          1.5680     5.3680    -2.6990 hc         1 ZPG       0.042367
     72 H33          2.3720     6.1810    -1.3380 hc         1 ZPG       0.042367
     73 HO1          4.0600     3.4420    -0.1540 ho         1 ZPG       0.492000
@<TRIPOS>BOND
     1     1     2 1   
     2     1    30 1   
     3     2     3 1   
     4     2     4 1   
     5     2    31 1   
     6     3    32 1   
     7     3    33 1   
     8     3    34 1   
     9     4     5 1   
    10     4    35 1   
    11     4    36 1   
    12     5     6 1   
    13     6     7 1   
    14     6     8 1   
    15     6    37 1   
    16     7    38 1   
    17     7    39 1   
    18     7    40 1   
    19     8     9 1   
    20     8    41 1   
    21     8    42 1   
    22     9    10 1   
    23    10    11 1   
    24    10    12 1   
    25    10    43 1   
    26    11    44 1   
    27    11    45 1   
    28    11    46 1   
    29    12    13 1   
    30    12    47 1   
    31    12    48 1   
    32    13    14 1   
    33    14    15 1   
    34    14    16 1   
    35    14    49 1   
    36    15    50 1   
    37    15    51 1   
    38    15    52 1   
    39    16    17 1   
    40    16    53 1   
    41    16    54 1   
    42    17    18 1   
    43    18    19 1   
    44    18    20 1   
    45    18    55 1   
    46    19    56 1   
    47    19    57 1   
    48    19    58 1   
    49    20    21 1   
    50    20    59 1   
    51    20    60 1   
    52    21    22 1   
    53    22    23 1   
    54    22    24 1   
    55    22    61 1   
    56    23    62 1   
    57    23    63 1   
    58    23    64 1   
    59    24    25 1   
    60    24    65 1   
    61    24    66 1   
    62    25    26 1   
    63    26    27 1   
    64    26    67 1   
    65    26    68 1   
    66    27    28 1   
    67    27    29 1   
    68    27    69 1   
    69    28    70 1   
    70    28    71 1   
    71    28    72 1   
    72    29    73 1   
@<TRIPOS>SUBSTRUCTURE
     1 ZPG         1 TEMP              0 ****  ****    0 ROOT
