@<TRIPOS>MOLECULE
ZPH
   45    45     1     0     0
SMALL
No Charge or Current Charge


@<TRIPOS>ATOM
      1 C1          -2.2390    -0.8450     0.9420 c3         1 ZPH      -0.021700
      2 C2          -3.1380     0.0350     0.0210 c3         1 ZPH      -0.084400
      3 C3          -4.2040    -0.7180    -0.8290 c3         1 ZPH      -0.061700
      4 C4          -5.0980     0.2820    -1.5970 c3         1 ZPH      -0.082100
      5 C5          -3.5770    -1.7470    -1.8010 c3         1 ZPH      -0.082100
      6 N           -3.1090    -1.6070     1.9180 n8         1 ZPH      -0.854800
      7 P1          -0.7250     0.1400     1.5750 p5         1 ZPH       1.244600
      8 O1          -1.1490     1.3700     2.3130 o          1 ZPH      -0.811500
      9 O2           0.1750    -0.7240     2.4020 o          1 ZPH      -0.811500
     10 C6           1.1880     1.2740     0.1410 c3         1 ZPH       0.175100
     11 C7           2.0310     0.7760    -1.0580 c3         1 ZPH      -0.036100
     12 C8           2.3710    -0.7090    -0.9780 ca         1 ZPH      -0.052300
     13 C9           1.5340    -1.6650    -1.5880 ca         1 ZPH      -0.110000
     14 C10          3.5240    -1.1380    -0.2920 ca         1 ZPH      -0.110000
     15 C11          1.8480    -3.0340    -1.5140 ca         1 ZPH      -0.134500
     16 C12          3.8390    -2.5060    -0.2190 ca         1 ZPH      -0.134500
     17 C13          3.0010    -3.4550    -0.8300 ca         1 ZPH      -0.138000
     18 C14          0.9400     2.8130     0.0720 c          1 ZPH       0.636100
     19 C15          2.0240     4.9550     0.3270 c3         1 ZPH       0.135700
     20 O3          -0.0380     0.5070     0.1600 os         1 ZPH      -0.552200
     21 O4           2.0870     3.5180     0.3480 os         1 ZPH      -0.409900
     22 O5          -0.1390     3.3410    -0.1860 o          1 ZPH      -0.551000
     23 H1          -1.7410    -1.5900     0.3100 h1         1 ZPH       0.060700
     24 H           -3.6400     0.7870     0.6440 hc         1 ZPH       0.054700
     25 H3          -2.4970     0.5990    -0.6680 hc         1 ZPH       0.054700
     26 H4          -4.8650    -1.2690    -0.1480 hc         1 ZPH       0.028700
     27 H5          -4.5060     0.8670    -2.3110 hc         1 ZPH       0.023533
     28 H6          -5.8830    -0.2460    -2.1530 hc         1 ZPH       0.023533
     29 H7          -5.5880     0.9770    -0.9040 hc         1 ZPH       0.023533
     30 H8          -3.0590    -2.5440    -1.2560 hc         1 ZPH       0.023533
     31 H9          -4.3530    -2.2200    -2.4150 hc         1 ZPH       0.023533
     32 H10         -2.8580    -1.2620    -2.4720 hc         1 ZPH       0.023533
     33 H11         -3.5360    -0.9480     2.5760 hn         1 ZPH       0.317800
     34 H13          1.7700     1.0950     1.0560 h1         1 ZPH       0.061700
     35 H14          1.4880     0.9910    -1.9870 hc         1 ZPH       0.047200
     36 H15          2.9570     1.3610    -1.1100 hc         1 ZPH       0.047200
     37 H16          0.6370    -1.3470    -2.1150 ha         1 ZPH       0.130500
     38 H17          4.1780    -0.4100     0.1850 ha         1 ZPH       0.130500
     39 H18          1.1970    -3.7670    -1.9860 ha         1 ZPH       0.117000
     40 H19          4.7320    -2.8310     0.3120 ha         1 ZPH       0.117000
     41 H20          3.2440    -4.5140    -0.7720 ha         1 ZPH       0.114000
     42 H21          3.0070     5.3810     0.5630 h1         1 ZPH       0.034700
     43 H22          1.7250     5.3170    -0.6650 h1         1 ZPH       0.034700
     44 H23          1.3040     5.3260     1.0670 h1         1 ZPH       0.034700
     45 H2          -3.8980    -2.0190     1.4120 hn         1 ZPH       0.317800
@<TRIPOS>BOND
     1     1     2 1   
     2     1     6 1   
     3     1     7 1   
     4     1    23 1   
     5     2     3 1   
     6     2    24 1   
     7     2    25 1   
     8     3     4 1   
     9     3     5 1   
    10     3    26 1   
    11     4    27 1   
    12     4    28 1   
    13     4    29 1   
    14     5    30 1   
    15     5    31 1   
    16     5    32 1   
    17     6    33 1   
    18     6    45 1   
    19     7     8 1   
    20     7     9 1   
    21     7    20 1   
    22    10    11 1   
    23    10    18 1   
    24    10    20 1   
    25    10    34 1   
    26    11    12 1   
    27    11    35 1   
    28    11    36 1   
    29    12    13 ar  
    30    12    14 ar  
    31    13    15 ar  
    32    13    37 1   
    33    14    16 ar  
    34    14    38 1   
    35    15    17 ar  
    36    15    39 1   
    37    16    17 ar  
    38    16    40 1   
    39    17    41 1   
    40    18    21 1   
    41    18    22 2   
    42    19    21 1   
    43    19    42 1   
    44    19    43 1   
    45    19    44 1   
@<TRIPOS>SUBSTRUCTURE
     1 ZPH         1 TEMP              0 ****  ****    0 ROOT
