@<TRIPOS>MOLECULE
ZPH
   45    45     1     0     0
SMALL
bcc


@<TRIPOS>ATOM
      1 C1          -2.3610    -0.7370     0.9180 c3         1 ZPH      -0.021700
      2 C2          -2.8700     0.1710    -0.2030 c3         1 ZPH      -0.084400
      3 C3          -4.2430    -0.2040    -0.7640 c3         1 ZPH      -0.061700
      4 C4          -4.6640     0.8100    -1.8230 c3         1 ZPH      -0.082100
      5 C5          -4.2640    -1.6180    -1.3350 c3         1 ZPH      -0.082100
      6 N           -3.2540    -0.8380     2.0720 n8         1 ZPH      -0.854800
      7 P1          -0.7330    -0.2130     1.5940 p5         1 ZPH       1.244600
      8 O1          -0.8200     1.1860     2.1570 o          1 ZPH      -0.811500
      9 O2          -0.1400    -1.3070     2.4380 o          1 ZPH      -0.811500
     10 C6           1.1610     0.8150     0.1100 c3         1 ZPH       0.175100
     11 C7           1.9880     0.5490    -1.1530 c3         1 ZPH      -0.036100
     12 C8           2.6450    -0.8000    -1.1140 ca         1 ZPH      -0.052300
     13 C9           1.9890    -1.9290    -1.5980 ca         1 ZPH      -0.110000
     14 C10          3.9150    -0.9520    -0.5620 ca         1 ZPH      -0.110000
     15 C11          2.5910    -3.1790    -1.5400 ca         1 ZPH      -0.134500
     16 C12          4.5190    -2.2010    -0.4980 ca         1 ZPH      -0.134500
     17 C13          3.8580    -3.3200    -0.9880 ca         1 ZPH      -0.138000
     18 C14          0.6090     2.2320     0.0300 c          1 ZPH       0.636100
     19 C15          0.9660     4.4560     0.6980 c3         1 ZPH       0.135700
     20 O3           0.1280    -0.1210     0.1690 os         1 ZPH      -0.552200
     21 O4           1.3350     3.0790     0.7460 os         1 ZPH      -0.409900
     22 O5          -0.3070     2.5620    -0.6780 o          1 ZPH      -0.551000
     23 H1          -2.2220    -1.7500     0.5270 h1         1 ZPH       0.060700
     24 H           -2.9080     1.1990     0.1720 hc         1 ZPH       0.054700
     25 H3          -2.1440     0.1790    -1.0200 hc         1 ZPH       0.054700
     26 H4          -4.9800    -0.1550     0.0470 hc         1 ZPH       0.028700
     27 H5          -3.9620     0.8160    -2.6610 hc         1 ZPH       0.023533
     28 H6          -5.6550     0.5850    -2.2220 hc         1 ZPH       0.023533
     29 H7          -4.6930     1.8220    -1.4130 hc         1 ZPH       0.023533
     30 H8          -4.0610    -2.3730    -0.5740 hc         1 ZPH       0.023533
     31 H9          -5.2380    -1.8520    -1.7700 hc         1 ZPH       0.023533
     32 H10         -3.5130    -1.7340    -2.1220 hc         1 ZPH       0.023533
     33 H11         -3.4940     0.0940     2.3900 hn         1 ZPH       0.317800
     34 H13          1.8290     0.7440     0.9780 h1         1 ZPH       0.061700
     35 H14          1.3320     0.6300    -2.0240 hc         1 ZPH       0.047200
     36 H15          2.7470     1.3300    -1.2460 hc         1 ZPH       0.047200
     37 H16          1.0020    -1.8280    -2.0300 ha         1 ZPH       0.130500
     38 H17          4.4390    -0.0830    -0.1810 ha         1 ZPH       0.130500
     39 H18          2.0690    -4.0460    -1.9250 ha         1 ZPH       0.117000
     40 H19          5.5080    -2.3000    -0.0680 ha         1 ZPH       0.117000
     41 H20          4.3270    -4.2940    -0.9410 ha         1 ZPH       0.114000
     42 H21          1.6640     4.9770     1.3460 h1         1 ZPH       0.034700
     43 H22          1.0440     4.8570    -0.3120 h1         1 ZPH       0.034700
     44 H23         -0.0490     4.6080     1.0660 h1         1 ZPH       0.034700
     45 H2          -4.1280    -1.2680     1.7960 hn         1 ZPH       0.317800
@<TRIPOS>BOND
     1     1     2 1   
     2     1     6 1   
     3     1     7 1   
     4     1    23 1   
     5     2     3 1   
     6     2    24 1   
     7     2    25 1   
     8     3     4 1   
     9     3     5 1   
    10     3    26 1   
    11     4    27 1   
    12     4    28 1   
    13     4    29 1   
    14     5    30 1   
    15     5    31 1   
    16     5    32 1   
    17     6    33 1   
    18     6    45 1   
    19     7     8 1   
    20     7     9 1   
    21     7    20 1   
    22    10    11 1   
    23    10    18 1   
    24    10    20 1   
    25    10    34 1   
    26    11    12 1   
    27    11    35 1   
    28    11    36 1   
    29    12    13 ar  
    30    12    14 ar  
    31    13    15 ar  
    32    13    37 1   
    33    14    16 ar  
    34    14    38 1   
    35    15    17 ar  
    36    15    39 1   
    37    16    17 ar  
    38    16    40 1   
    39    17    41 1   
    40    18    21 1   
    41    18    22 2   
    42    19    21 1   
    43    19    42 1   
    44    19    43 1   
    45    19    44 1   
@<TRIPOS>SUBSTRUCTURE
     1 ZPH         1 TEMP              0 ****  ****    0 ROOT
