@<TRIPOS>MOLECULE
ZPI
   27    29     1     0     0
SMALL
No Charge or Current Charge


@<TRIPOS>ATOM
      1 N1         117.4630   -15.0090    66.2360 n1         1 ZPI      -0.469000
      2 C4         118.8220   -13.5580    61.8050 ca         1 ZPI      -0.096800
      3 C5         119.6170   -12.4140    61.9550 ca         1 ZPI      -0.033000
      4 C6         118.4250   -14.2510    60.6150 cc         1 ZPI      -0.128400
      5 C7         117.6510   -15.3260    61.0400 cd         1 ZPI      -0.059300
      6 C8         117.0280   -16.3370    60.1020 c6         1 ZPI      -0.018200
      7 C10        117.8460   -14.8100    58.2190 c6         1 ZPI      -0.075400
      8 N          117.5430   -15.3110    62.4480 na         1 ZPI      -0.214700
      9 C          119.8500   -11.9400    63.2630 ca         1 ZPI      -0.155000
     10 C1         119.2920   -12.6110    64.3770 ca         1 ZPI      -0.044000
     11 C11        118.7630   -13.9900    59.1650 c6         1 ZPI      -0.001200
     12 C2         118.4940   -13.7640    64.1930 ca         1 ZPI      -0.052000
     13 C3         118.2780   -14.2140    62.8770 ca         1 ZPI      -0.006200
     14 C9         117.6900   -16.2750    58.7020 c6         1 ZPI      -0.069400
     15 H1         120.0410   -11.9080    61.0910 ha         1 ZPI       0.117000
     16 H2         115.9530   -16.1350    60.0060 hc         1 ZPI       0.052200
     17 H3         117.1170   -17.3540    60.5090 hc         1 ZPI       0.052200
     18 H4         118.2530   -14.7900    57.1990 hc         1 ZPI       0.043700
     19 H5         116.8560   -14.3370    58.1680 hc         1 ZPI       0.043700
     20 H6         117.0350   -15.9720    63.0270 hn         1 ZPI       0.358000
     21 H7         120.4630   -11.0550    63.4150 ha         1 ZPI       0.118000
     22 H8         119.4820   -12.2330    65.3800 ha         1 ZPI       0.122000
     23 H9         119.8110   -14.2600    58.9770 hc         1 ZPI       0.047700
     24 H10        118.6760   -12.9210    58.9290 hc         1 ZPI       0.047700
     25 H11        117.0910   -16.8490    57.9810 hc         1 ZPI       0.045200
     26 H12        118.6780   -16.7550    58.7390 hc         1 ZPI       0.045200
     27 C12        117.9280   -14.4470    65.3240 cg         1 ZPI       0.331000
@<TRIPOS>BOND
     1     1    27 3   
     2     2     3 ar  
     3     2     4 1   
     4     2    13 ar  
     5     3     9 ar  
     6     3    15 1   
     7     4     5 2   
     8     4    11 1   
     9     5     6 1   
    10     5     8 1   
    11     6    14 1   
    12     6    16 1   
    13     6    17 1   
    14     7    11 1   
    15     7    14 1   
    16     7    18 1   
    17     7    19 1   
    18     8    13 1   
    19     8    20 1   
    20     9    10 ar  
    21     9    21 1   
    22    10    12 ar  
    23    10    22 1   
    24    11    23 1   
    25    11    24 1   
    26    12    13 ar  
    27    12    27 1   
    28    14    25 1   
    29    14    26 1   
@<TRIPOS>SUBSTRUCTURE
     1 ZPI         1 TEMP              0 ****  ****    0 ROOT
