@<TRIPOS>MOLECULE
ZPI
   27    29     1     0     0
SMALL
abcg2


@<TRIPOS>ATOM
      1 N1         117.4050   -14.9930    66.1570 n1         1 ZPI      -0.469000
      2 C4         118.8680   -13.5510    61.7550 ca         1 ZPI      -0.096800
      3 C5         119.6420   -12.4140    61.9800 ca         1 ZPI      -0.033000
      4 C6         118.4700   -14.2700    60.5850 cc         1 ZPI      -0.128400
      5 C7         117.7010   -15.3130    61.0090 cd         1 ZPI      -0.059300
      6 C8         117.0580   -16.3320    60.1370 c6         1 ZPI      -0.018200
      7 C10        117.8130   -14.8100    58.2600 c6         1 ZPI      -0.075400
      8 N          117.5910   -15.2830    62.3800 na         1 ZPI      -0.214700
      9 C          119.8340   -11.9620    63.2770 ca         1 ZPI      -0.155000
     10 C1         119.2620   -12.6250    64.3610 ca         1 ZPI      -0.044000
     11 C11        118.7740   -14.0140    59.1450 c6         1 ZPI      -0.001200
     12 C2         118.4810   -13.7640    64.1670 ca         1 ZPI      -0.052000
     13 C3         118.2890   -14.2230    62.8590 ca         1 ZPI      -0.006200
     14 C9         117.6720   -16.2540    58.7370 c6         1 ZPI      -0.069400
     15 H1         120.0910   -11.8850    61.1490 ha         1 ZPI       0.117000
     16 H2         115.9790   -16.1510    60.0870 hc         1 ZPI       0.052200
     17 H3         117.1800   -17.3340    60.5550 hc         1 ZPI       0.052200
     18 H4         118.1620   -14.7910    57.2260 hc         1 ZPI       0.043700
     19 H5         116.8300   -14.3300    58.2690 hc         1 ZPI       0.043700
     20 H6         117.0760   -15.9520    62.9300 hn         1 ZPI       0.358000
     21 H7         120.4340   -11.0810    63.4580 ha         1 ZPI       0.118000
     22 H8         119.4200   -12.2570    65.3660 ha         1 ZPI       0.122000
     23 H9         119.8080   -14.2980    58.9190 hc         1 ZPI       0.047700
     24 H10        118.6990   -12.9470    58.9180 hc         1 ZPI       0.047700
     25 H11        117.0560   -16.8240    58.0400 hc         1 ZPI       0.045200
     26 H12        118.6560   -16.7300    58.7470 hc         1 ZPI       0.045200
     27 C12        117.8920   -14.4380    65.2710 cg         1 ZPI       0.331000
@<TRIPOS>BOND
     1     1    27 3   
     2     2     3 ar  
     3     2     4 1   
     4     2    13 ar  
     5     3     9 ar  
     6     3    15 1   
     7     4     5 2   
     8     4    11 1   
     9     5     6 1   
    10     5     8 1   
    11     6    14 1   
    12     6    16 1   
    13     6    17 1   
    14     7    11 1   
    15     7    14 1   
    16     7    18 1   
    17     7    19 1   
    18     8    13 1   
    19     8    20 1   
    20     9    10 ar  
    21     9    21 1   
    22    10    12 ar  
    23    10    22 1   
    24    11    23 1   
    25    11    24 1   
    26    12    13 ar  
    27    12    27 1   
    28    14    25 1   
    29    14    26 1   
@<TRIPOS>SUBSTRUCTURE
     1 ZPI         1 TEMP              0 ****  ****    0 ROOT
