@<TRIPOS>MOLECULE
ZPJ
   11    11     1     0     0
SMALL
bcc


@<TRIPOS>ATOM
      1 C01         11.7500    48.9730    50.3080 cx         1 ZPJ      -0.141900
      2 C02         10.7710    49.9250    49.7150 cx         1 ZPJ      -0.141900
      3 C03         11.3000    48.7860    48.8850 cx         1 ZPJ      -0.219700
      4 C04         12.2600    49.0830    47.7470 c          1 ZPJ       0.946600
      5 O05         12.1370    48.3750    46.7260 o          1 ZPJ      -0.844800
      6 O06         13.0820    50.0080    47.9200 o          1 ZPJ      -0.844800
      7 H1          11.3920    48.2690    51.0490 hc         1 ZPJ       0.049200
      8 H2          12.7630    49.3180    50.4710 hc         1 ZPJ       0.049200
      9 H3          11.1140    50.9210    49.4670 hc         1 ZPJ       0.049200
     10 H4           9.7410    49.8740    50.0470 hc         1 ZPJ       0.049200
     11 H5          10.6080    47.9680    48.7140 hc         1 ZPJ       0.049700
@<TRIPOS>BOND
     1     1     2 1   
     2     1     3 1   
     3     1     7 1   
     4     1     8 1   
     5     2     3 1   
     6     2     9 1   
     7     2    10 1   
     8     3     4 1   
     9     3    11 1   
    10     4     5 1   
    11     4     6 1   
@<TRIPOS>SUBSTRUCTURE
     1 ZPJ         1 TEMP              0 ****  ****    0 ROOT
