@<TRIPOS>MOLECULE
ZPJ
   11    11     1     0     0
SMALL
No Charge or Current Charge


@<TRIPOS>ATOM
      1 C01         11.7590    49.2800    50.3420 cx         1 ZPJ      -0.141900
      2 C02         10.5510    49.7440    49.5680 cx         1 ZPJ      -0.141900
      3 C03         11.4620    48.6840    48.9790 cx         1 ZPJ      -0.219700
      4 C04         12.3530    49.0410    47.8020 c          1 ZPJ       0.736000
      5 O05         11.8230    49.4760    46.7910 o          1 ZPJ      -0.739500
      6 O06         13.5500    48.8120    47.8970 o          1 ZPJ      -0.739500
      7 H1          11.5920    48.6540    51.2150 hc         1 ZPJ       0.049200
      8 H2          12.5970    49.9680    50.4290 hc         1 ZPJ       0.049200
      9 H3          10.5810    50.7430    49.1380 hc         1 ZPJ       0.049200
     10 H4           9.5710    49.4310    49.9210 hc         1 ZPJ       0.049200
     11 H5          11.0790    47.6680    48.9660 hc         1 ZPJ       0.049700
@<TRIPOS>BOND
     1     1     2 1   
     2     1     3 1   
     3     1     7 1   
     4     1     8 1   
     5     2     3 1   
     6     2     9 1   
     7     2    10 1   
     8     3     4 1   
     9     3    11 1   
    10     4     5 1   
    11     4     6 1   
@<TRIPOS>SUBSTRUCTURE
     1 ZPJ         1 TEMP              0 ****  ****    0 ROOT
