@<TRIPOS>MOLECULE
ZPL
   47    49     1     0     0
SMALL
abcg2


@<TRIPOS>ATOM
      1 N1         -12.9550    20.5740    25.8710 nc         1 ZPL      -0.653000
      2 N3         -18.1240    16.3590    26.5380 n          1 ZPL      -0.429800
      3 C4         -14.5010    18.7440    26.4830 c3         1 ZPL      -0.143700
      4 C5         -15.9310    19.3080    26.3710 c3         1 ZPL       0.109000
      5 C6         -17.3750    17.4240    26.9760 c          1 ZPL       0.646100
      6 C7         -18.7550    15.4950    27.5310 c6         1 ZPL       0.088500
      7 C8         -18.7020    14.0470    27.0690 c6         1 ZPL       0.086000
      8 C10        -18.6860    16.2150    25.1990 c6         1 ZPL       0.088500
      9 C13        -21.5960    12.8070    27.5570 cc         1 ZPL      -0.100000
     10 C15        -22.3860    10.6290    27.6020 cd         1 ZPL      -0.243000
     11 C17        -11.2590    22.3900    28.7120 c3         1 ZPL      -0.015800
     12 C1         -11.4220    22.4740    25.4920 c3         1 ZPL      -0.116400
     13 C12        -21.0160    12.3160    26.4130 cd         1 ZPL      -0.287600
     14 C14        -22.3820    11.8410    28.2360 cc         1 ZPL      -0.141000
     15 C16        -12.0440    21.5200    27.7850 cd         1 ZPL      -0.211300
     16 C2         -12.1260    21.5360    26.4210 cc         1 ZPL       0.287300
     17 C3         -13.5090    19.8210    26.7740 cd         1 ZPL       0.445700
     18 C9         -18.6490    14.7570    24.7490 c6         1 ZPL       0.086000
     19 N2         -16.9100    18.2950    26.0290 ns         1 ZPL      -0.503900
     20 N4         -19.3010    13.9140    25.7430 n          1 ZPL      -0.410800
     21 O1         -17.1300    17.5970    28.1760 o          1 ZPL      -0.645100
     22 O2         -20.4590    12.7550    24.1720 o          1 ZPL      -0.603100
     23 S1         -21.4550    10.6610    26.1620 ss         1 ZPL       0.286000
     24 S2         -13.0520    20.2430    28.3960 ss         1 ZPL      -0.058400
     25 H5         -14.2300    18.2710    25.5370 hc         1 ZPL       0.069700
     26 H4         -14.4820    17.9830    27.2630 hc         1 ZPL       0.069700
     27 H6         -16.2190    19.7700    27.3140 h1         1 ZPL       0.069200
     28 H7         -15.9600    20.0740    25.5960 h1         1 ZPL       0.069200
     29 H10        -18.2270    15.6040    28.4720 h1         1 ZPL       0.057700
     30 H9         -19.7990    15.7950    27.6800 h1         1 ZPL       0.057700
     31 H12        -17.6560    13.7310    27.0000 h1         1 ZPL       0.065200
     32 H11        -19.2050    13.4030    27.7790 h1         1 ZPL       0.065200
     33 H16        -18.1370    16.8000    24.4690 h1         1 ZPL       0.057700
     34 H15        -19.7250    16.5670    25.1970 h1         1 ZPL       0.057700
     35 H19        -22.8810     9.7190    27.9030 h4         1 ZPL       0.153000
     36 H21        -10.6270    21.7970    29.3770 hc         1 ZPL       0.049033
     37 H22        -10.6130    23.0620    28.1480 hc         1 ZPL       0.049033
     38 H20        -11.9140    23.0000    29.3390 hc         1 ZPL       0.049033
     39 H2         -10.7940    21.9180    24.7910 hc         1 ZPL       0.048700
     40 H1         -12.1460    23.0410    24.9030 hc         1 ZPL       0.048700
     41 H3         -10.7920    23.1800    26.0290 hc         1 ZPL       0.048700
     42 H18        -22.9210    12.0370    29.1520 ha         1 ZPL       0.138000
     43 H13        -17.6100    14.4350    24.6240 h1         1 ZPL       0.065200
     44 H14        -19.1650    14.6470    23.8000 h1         1 ZPL       0.065200
     45 H8         -16.9390    18.0250    25.0620 hn         1 ZPL       0.303500
     46 C11        -20.2300    13.0050    25.3610 c          1 ZPL       0.646700
     47 H17        -21.4850    13.8290    27.8870 ha         1 ZPL       0.135000
@<TRIPOS>BOND
     1     1    16 1   
     2     1    17 2   
     3     2     5 1   
     4     2     6 1   
     5     2     8 1   
     6     3     4 1   
     7     3    17 1   
     8     3    25 1   
     9     3    26 1   
    10     4    19 1   
    11     4    27 1   
    12     4    28 1   
    13     5    19 1   
    14     5    21 2   
    15     6     7 1   
    16     6    29 1   
    17     6    30 1   
    18     7    20 1   
    19     7    31 1   
    20     7    32 1   
    21     8    18 1   
    22     8    33 1   
    23     8    34 1   
    24     9    13 2   
    25     9    14 1   
    26     9    47 1   
    27    10    14 2   
    28    10    23 1   
    29    10    35 1   
    30    11    15 1   
    31    11    36 1   
    32    11    37 1   
    33    11    38 1   
    34    12    16 1   
    35    12    39 1   
    36    12    40 1   
    37    12    41 1   
    38    13    23 1   
    39    13    46 1   
    40    14    42 1   
    41    15    16 2   
    42    15    24 1   
    43    17    24 1   
    44    18    20 1   
    45    18    43 1   
    46    18    44 1   
    47    19    45 1   
    48    20    46 1   
    49    22    46 2   
@<TRIPOS>SUBSTRUCTURE
     1 ZPL         1 TEMP              0 ****  ****    0 ROOT
