@<TRIPOS>MOLECULE
ZPL
   47    49     1     0     0
SMALL
No Charge or Current Charge


@<TRIPOS>ATOM
      1 N1         -12.9890    20.8670    25.8430 nc         1 ZPL      -0.653000
      2 N3         -17.6430    15.9270    26.5880 n          1 ZPL      -0.429800
      3 C4         -14.2220    18.8230    26.4650 c3         1 ZPL      -0.143700
      4 C5         -15.7250    19.1550    26.4770 c3         1 ZPL       0.109000
      5 C6         -16.8600    16.9910    27.0790 c          1 ZPL       0.646100
      6 C7         -18.2200    14.9440    27.5510 c6         1 ZPL       0.088500
      7 C8         -18.7340    13.6290    26.9230 c6         1 ZPL       0.086000
      8 C10        -18.3080    15.9850    25.2480 c6         1 ZPL       0.088500
      9 C13        -21.7320    12.8510    27.5530 cc         1 ZPL      -0.100000
     10 C15        -23.2270    11.0610    27.5800 cd         1 ZPL      -0.243000
     11 C17        -11.3170    22.7550    28.6590 c3         1 ZPL      -0.015800
     12 C1         -11.7000    22.9510    25.5090 c3         1 ZPL      -0.116400
     13 C12        -21.4290    12.2980    26.3280 cd         1 ZPL      -0.287600
     14 C14        -22.7360    12.1460    28.2580 cc         1 ZPL      -0.141000
     15 C16        -12.0740    21.8030    27.7670 cd         1 ZPL      -0.211300
     16 C2         -12.2470    21.8760    26.4030 cc         1 ZPL       0.287300
     17 C3         -13.3780    20.0210    26.7860 cd         1 ZPL       0.445700
     18 C9         -18.8700    14.6440    24.7110 c6         1 ZPL       0.086000
     19 N2         -16.5490    17.9810    26.1780 ns         1 ZPL      -0.503900
     20 N4         -19.5930    13.8460    25.7300 n          1 ZPL      -0.410800
     21 O1         -16.4760    17.0340    28.2370 o          1 ZPL      -0.645100
     22 O2         -20.5010    12.4440    24.1520 o          1 ZPL      -0.603100
     23 S1         -22.4470    10.8850    25.9970 ss         1 ZPL       0.286000
     24 S2         -12.8780    20.3920    28.4310 ss         1 ZPL      -0.058400
     25 H5         -13.9480    18.4250    25.4810 hc         1 ZPL       0.069700
     26 H4         -14.0190    18.0280    27.1910 hc         1 ZPL       0.069700
     27 H6         -16.0100    19.5530    27.4610 h1         1 ZPL       0.069200
     28 H7         -15.9350    19.9320    25.7280 h1         1 ZPL       0.069200
     29 H10        -17.4700    14.6890    28.3140 h1         1 ZPL       0.057700
     30 H9         -19.0560    15.4300    28.0740 h1         1 ZPL       0.057700
     31 H12        -17.8590    13.0420    26.6060 h1         1 ZPL       0.065200
     32 H11        -19.2330    13.0260    27.6910 h1         1 ZPL       0.065200
     33 H16        -17.6070    16.3720    24.4960 h1         1 ZPL       0.057700
     34 H15        -19.1390    16.7020    25.3160 h1         1 ZPL       0.057700
     35 H19        -23.9960    10.3640    27.8890 h4         1 ZPL       0.153000
     36 H21        -11.3500    22.4360    29.7070 hc         1 ZPL       0.049033
     37 H22        -10.2620    22.8160    28.3630 hc         1 ZPL       0.049033
     38 H20        -11.7390    23.7650    28.6040 hc         1 ZPL       0.049033
     39 H2         -10.6060    22.9820    25.5670 hc         1 ZPL       0.048700
     40 H1         -11.9760    22.7860    24.4610 hc         1 ZPL       0.048700
     41 H3         -12.0830    23.9330    25.8070 hc         1 ZPL       0.048700
     42 H18        -23.0840    12.4590    29.2390 ha         1 ZPL       0.138000
     43 H13        -18.0350    14.0410    24.3240 h1         1 ZPL       0.065200
     44 H14        -19.5350    14.8560    23.8610 h1         1 ZPL       0.065200
     45 H8         -16.9070    17.8720    25.2390 hn         1 ZPL       0.303500
     46 C11        -20.4860    12.8360    25.3110 c          1 ZPL       0.646700
     47 H17        -21.2930    13.7610    27.9540 ha         1 ZPL       0.135000
@<TRIPOS>BOND
     1     1    16 1   
     2     1    17 2   
     3     2     5 1   
     4     2     6 1   
     5     2     8 1   
     6     3     4 1   
     7     3    17 1   
     8     3    25 1   
     9     3    26 1   
    10     4    19 1   
    11     4    27 1   
    12     4    28 1   
    13     5    19 1   
    14     5    21 2   
    15     6     7 1   
    16     6    29 1   
    17     6    30 1   
    18     7    20 1   
    19     7    31 1   
    20     7    32 1   
    21     8    18 1   
    22     8    33 1   
    23     8    34 1   
    24     9    13 2   
    25     9    14 1   
    26     9    47 1   
    27    10    14 2   
    28    10    23 1   
    29    10    35 1   
    30    11    15 1   
    31    11    36 1   
    32    11    37 1   
    33    11    38 1   
    34    12    16 1   
    35    12    39 1   
    36    12    40 1   
    37    12    41 1   
    38    13    23 1   
    39    13    46 1   
    40    14    42 1   
    41    15    16 2   
    42    15    24 1   
    43    17    24 1   
    44    18    20 1   
    45    18    43 1   
    46    18    44 1   
    47    19    45 1   
    48    20    46 1   
    49    22    46 2   
@<TRIPOS>SUBSTRUCTURE
     1 ZPL         1 TEMP              0 ****  ****    0 ROOT
