@<TRIPOS>MOLECULE
ZPM
   14    14     1     0     0
SMALL
No Charge or Current Charge


@<TRIPOS>ATOM
      1 C01         10.7470    50.0940    50.7700 cy         1 ZPM      -0.117400
      2 C02         10.4380    49.9540    49.2390 cy         1 ZPM      -0.073400
      3 C03         11.3020    48.6350    49.3520 cy         1 ZPM      -0.181700
      4 C04         12.1310    49.4360    50.4350 cy         1 ZPM      -0.073400
      5 C05         12.2610    48.8540    48.0910 c          1 ZPM       0.725000
      6 O06         13.4610    48.6140    48.1400 o          1 ZPM      -0.740000
      7 O07         11.8200    49.1170    46.9790 o          1 ZPM      -0.740000
      8 H1          10.7850    51.1170    51.1580 hc         1 ZPM       0.016200
      9 H2          10.1010    49.4960    51.4250 hc         1 ZPM       0.016200
     10 H3          10.8360    50.7870    48.6450 hc         1 ZPM       0.035200
     11 H4           9.3840    49.8120    48.9790 hc         1 ZPM       0.035200
     12 H5          10.8560    47.6570    49.5610 hc         1 ZPM       0.027700
     13 H6          12.5770    48.8360    51.2350 hc         1 ZPM       0.035200
     14 H7          12.8760    50.1640    50.0860 hc         1 ZPM       0.035200
@<TRIPOS>BOND
     1     1     2 1   
     2     1     4 1   
     3     1     8 1   
     4     1     9 1   
     5     2     3 1   
     6     2    10 1   
     7     2    11 1   
     8     3     4 1   
     9     3     5 1   
    10     3    12 1   
    11     4    13 1   
    12     4    14 1   
    13     5     6 1   
    14     5     7 1   
@<TRIPOS>SUBSTRUCTURE
     1 ZPM         1 TEMP              0 ****  ****    0 ROOT
