@<TRIPOS>MOLECULE
ZPM
   14    14     1     0     0
SMALL
abcg2


@<TRIPOS>ATOM
      1 C01         10.7540    50.1510    50.7860 cy         1 ZPM      -0.117400
      2 C02         10.3970    49.9740    49.2970 cy         1 ZPM      -0.073400
      3 C03         11.4730    48.8730    49.2190 cy         1 ZPM      -0.181700
      4 C04         12.0940    49.4420    50.5080 cy         1 ZPM      -0.073400
      5 C05         12.3150    48.7290    47.9540 c          1 ZPM       0.725000
      6 O06         13.5230    48.4500    48.1080 o          1 ZPM      -0.740000
      7 O07         11.7140    48.8820    46.8700 o          1 ZPM      -0.740000
      8 H1          10.7850    51.1650    51.1860 hc         1 ZPM       0.016200
      9 H2          10.1070    49.5490    51.4270 hc         1 ZPM       0.016200
     10 H3          10.6820    50.8490    48.7090 hc         1 ZPM       0.035200
     11 H4           9.3680    49.7120    49.0470 hc         1 ZPM       0.035200
     12 H5          11.0110    47.9020    49.4380 hc         1 ZPM       0.027700
     13 H6          12.4620    48.7400    51.2580 hc         1 ZPM       0.035200
     14 H7          12.8900    50.1560    50.2870 hc         1 ZPM       0.035200
@<TRIPOS>BOND
     1     1     2 1   
     2     1     4 1   
     3     1     8 1   
     4     1     9 1   
     5     2     3 1   
     6     2    10 1   
     7     2    11 1   
     8     3     4 1   
     9     3     5 1   
    10     3    12 1   
    11     4    13 1   
    12     4    14 1   
    13     5     6 1   
    14     5     7 1   
@<TRIPOS>SUBSTRUCTURE
     1 ZPM         1 TEMP              0 ****  ****    0 ROOT
