@<TRIPOS>MOLECULE
ZPN
   75    76     1     0     0
SMALL
No Charge or Current Charge


@<TRIPOS>ATOM
      1 C1          -0.8430    -0.1240    -0.7720 c          1 ZPN       0.606300
      2 O1          -0.1400    -0.3650    -1.7430 o          1 ZPN      -0.502000
      3 C2          -0.8330     1.1620    -0.0330 ce         1 ZPN      -0.266200
      4 C3           0.0490     2.1760    -0.2440 cf         1 ZPN      -0.097000
      5 C4           0.0190     3.4400     0.4840 cf         1 ZPN      -0.204000
      6 C5           1.0510     4.3050     0.6390 c2         1 ZPN      -0.067400
      7 C21          0.9030     5.6040     1.4150 c3         1 ZPN      -0.066900
      8 C6           2.4720     4.0720     0.1330 c3         1 ZPN      -0.161200
      9 C7           3.3260     3.3400     1.1800 c          1 ZPN       0.580100
     10 O7           3.7420     3.9150     2.1780 o          1 ZPN      -0.518100
     11 C8           3.6550     1.8600     0.9270 c3         1 ZPN      -0.184400
     12 C9           5.0410     1.7120     0.2540 c3         1 ZPN      -0.063400
     13 C10          5.6780     0.3010     0.3440 c3         1 ZPN      -0.070400
     14 C11          5.0080    -0.8340    -0.4900 c6         1 ZPN       0.175300
     15 C12          5.9290    -2.0920    -0.6040 c6         1 ZPN      -0.074200
     16 C13          5.3530    -3.3130     0.1020 c2         1 ZPN      -0.106400
     17 C22          6.0640    -4.0570     0.9630 c2         1 ZPN      -0.311000
     18 C14          3.8850    -3.5900    -0.2050 c6         1 ZPN      -0.072200
     19 C15          3.0750    -2.2890    -0.4780 c6         1 ZPN       0.210500
     20 O11          3.7450    -1.1700     0.1380 os         1 ZPN      -0.444000
     21 C16          1.6480    -2.4030     0.0360 c2         1 ZPN      -0.204200
     22 C17          0.6470    -3.0700    -0.5760 c2         1 ZPN      -0.105400
     23 C23          0.7780    -3.8250    -1.8960 c3         1 ZPN      -0.057900
     24 C18         -0.7500    -3.1850     0.0250 c3         1 ZPN      -0.054200
     25 C19         -1.8500    -2.3450    -0.6960 c3         1 ZPN       0.131300
     26 O19         -1.7550    -0.9820    -0.2200 os         1 ZPN      -0.435100
     27 C20         -3.3010    -2.8490    -0.3900 c3         1 ZPN       0.326700
     28 O20         -3.5060    -4.1650    -0.9040 oh         1 ZPN      -0.647000
     29 N20         -4.3230    -1.9840    -0.9530 ns         1 ZPN      -0.538900
     30 C24         -4.9700    -1.0010    -0.2490 c          1 ZPN       0.618300
     31 O3          -4.7920    -0.8360     0.9470 o          1 ZPN      -0.591100
     32 C25         -5.9020    -0.1870    -1.0860 ce         1 ZPN      -0.308200
     33 C26         -6.6930     0.8650    -0.7130 cf         1 ZPN      -0.082000
     34 C27         -6.8280     1.4670     0.6100 cf         1 ZPN      -0.209000
     35 C28         -7.6430     2.5120     0.8740 c2         1 ZPN      -0.182200
     36 C29         -7.8100     3.1640     2.2290 c3         1 ZPN      -0.064900
     37 H21         -1.5930     1.2620     0.7390 ha         1 ZPN       0.203000
     38 H31          0.8200     2.0350    -1.0050 ha         1 ZPN       0.189000
     39 H41         -0.9370     3.6910     0.9480 ha         1 ZPN       0.182000
     40 H211        -0.1270     5.7570     1.7590 hc         1 ZPN       0.048367
     41 H212         1.5470     5.6150     2.3020 hc         1 ZPN       0.048367
     42 H213         1.1700     6.4680     0.7960 hc         1 ZPN       0.048367
     43 H62          2.4570     3.4900    -0.7930 hc         1 ZPN       0.078200
     44 H61          2.9510     5.0340    -0.0820 hc         1 ZPN       0.078200
     45 H81          3.6670     1.3340     1.8890 hc         1 ZPN       0.064700
     46 H82          2.9080     1.4170     0.2590 hc         1 ZPN       0.064700
     47 H91          4.9750     2.0190    -0.7970 hc         1 ZPN       0.053700
     48 H92          5.7370     2.4130     0.7340 hc         1 ZPN       0.053700
     49 H102         6.7160     0.4110     0.0080 hc         1 ZPN       0.048700
     50 H162         5.7400    -0.0000     1.3970 hc         1 ZPN       0.048700
     51 H141         4.8090    -0.4470    -1.5000 h1         1 ZPN       0.031700
     52 H151         6.0530    -2.3330    -1.6690 hc         1 ZPN       0.051700
     53 H142         6.9420    -1.8790    -0.2340 hc         1 ZPN       0.051700
     54 H223         7.1080    -3.8350     1.1880 ha         1 ZPN       0.164000
     55 H222         5.6290    -4.9160     1.4740 ha         1 ZPN       0.164000
     56 H121         3.8160    -4.2430    -1.0840 hc         1 ZPN       0.053700
     57 H122         3.4340    -4.1500     0.6260 hc         1 ZPN       0.053700
     58 H111         3.0510    -2.0990    -1.5610 h1         1 ZPN       0.037700
     59 H101         1.4680    -1.9000     0.9860 ha         1 ZPN       0.184000
     60 H231         1.7870    -3.7850    -2.3160 hc         1 ZPN       0.043367
     61 H232         0.5280    -4.8860    -1.7670 hc         1 ZPN       0.043367
     62 H233         0.1050    -3.4170    -2.6580 hc         1 ZPN       0.043367
     63 H181        -1.0420    -4.2420     0.0320 hc         1 ZPN       0.066200
     64 H182        -0.7340    -2.8900     1.0820 hc         1 ZPN       0.066200
     65 H191        -1.7120    -2.3890    -1.7840 h1         1 ZPN       0.064700
     66 H201        -3.4360    -2.8730     0.7010 h2         1 ZPN       0.119700
     67 H202        -3.3770    -4.1170    -1.8740 ho         1 ZPN       0.438000
     68 H203        -4.5300    -2.0530    -1.9390 hn         1 ZPN       0.309500
     69 H2'1        -5.9450    -0.4830    -2.1320 ha         1 ZPN       0.174000
     70 H3'1        -7.3030     1.3190    -1.4990 ha         1 ZPN       0.163000
     71 H4'1        -6.2380     1.0520     1.4280 ha         1 ZPN       0.211000
     72 H6          -8.2470     2.9510     0.0760 ha         1 ZPN       0.162000
     73 H7          -8.5290     3.9920     2.1850 hc         1 ZPN       0.045700
     74 H8          -8.1750     2.4440     2.9710 hc         1 ZPN       0.045700
     75 H9          -6.8580     3.5690     2.5920 hc         1 ZPN       0.045700
@<TRIPOS>BOND
     1     1     2 2   
     2     1     3 1   
     3     1    26 1   
     4     3     4 2   
     5     3    37 1   
     6     4     5 1   
     7     4    38 1   
     8     5     6 2   
     9     5    39 1   
    10     6     7 1   
    11     6     8 1   
    12     7    40 1   
    13     7    41 1   
    14     7    42 1   
    15     8     9 1   
    16     8    43 1   
    17     8    44 1   
    18     9    10 2   
    19     9    11 1   
    20    11    12 1   
    21    11    45 1   
    22    11    46 1   
    23    12    13 1   
    24    12    47 1   
    25    12    48 1   
    26    13    14 1   
    27    13    49 1   
    28    13    50 1   
    29    14    15 1   
    30    14    20 1   
    31    14    51 1   
    32    15    16 1   
    33    15    52 1   
    34    15    53 1   
    35    16    17 2   
    36    16    18 1   
    37    17    54 1   
    38    17    55 1   
    39    18    19 1   
    40    18    56 1   
    41    18    57 1   
    42    19    20 1   
    43    19    21 1   
    44    19    58 1   
    45    21    22 2   
    46    21    59 1   
    47    22    23 1   
    48    22    24 1   
    49    23    60 1   
    50    23    61 1   
    51    23    62 1   
    52    24    25 1   
    53    24    63 1   
    54    24    64 1   
    55    25    26 1   
    56    25    27 1   
    57    25    65 1   
    58    27    28 1   
    59    27    29 1   
    60    27    66 1   
    61    28    67 1   
    62    29    30 1   
    63    29    68 1   
    64    30    31 2   
    65    30    32 1   
    66    32    33 2   
    67    32    69 1   
    68    33    34 1   
    69    33    70 1   
    70    34    35 2   
    71    34    71 1   
    72    35    36 1   
    73    35    72 1   
    74    36    73 1   
    75    36    74 1   
    76    36    75 1   
@<TRIPOS>SUBSTRUCTURE
     1 ZPN         1 TEMP              0 ****  ****    0 ROOT
