@<TRIPOS>MOLECULE
ZPN
   75    76     1     0     0
SMALL
abcg2


@<TRIPOS>ATOM
      1 C1          -0.4930     0.1190    -0.7100 c          1 ZPN       0.606300
      2 O1          -0.2570     0.1990    -1.8930 o          1 ZPN      -0.502000
      3 C2          -0.0330     1.0670     0.3120 ce         1 ZPN      -0.266200
      4 C3           0.7960     2.0660    -0.0220 cf         1 ZPN      -0.097000
      5 C4           1.2960     3.0470     0.9090 cf         1 ZPN      -0.204000
      6 C5           2.1920     4.0080     0.6240 c2         1 ZPN      -0.067400
      7 C21          2.6040     5.0070     1.6590 c3         1 ZPN      -0.066900
      8 C6           2.8330     4.1950    -0.7210 c3         1 ZPN      -0.161200
      9 C7           4.3370     3.9630    -0.7380 c          1 ZPN       0.580100
     10 O7           5.0560     4.6730    -1.4040 o          1 ZPN      -0.518100
     11 C8           4.8820     2.8020     0.0530 c3         1 ZPN      -0.184400
     12 C9           4.4070     1.4360    -0.4550 c3         1 ZPN      -0.063400
     13 C10          5.1280     0.3190     0.2880 c3         1 ZPN      -0.070400
     14 C11          4.7760    -1.0830    -0.1740 c6         1 ZPN       0.175300
     15 C12          5.6490    -2.1430     0.5470 c6         1 ZPN      -0.074200
     16 C13          4.7730    -3.1510     1.2230 c2         1 ZPN      -0.106400
     17 C22          4.8970    -3.4860     2.5030 c2         1 ZPN      -0.311000
     18 C14          3.7210    -3.7200     0.3220 c6         1 ZPN      -0.072200
     19 C15          2.9780    -2.5700    -0.4180 c6         1 ZPN       0.210500
     20 O11          3.4030    -1.3110     0.0720 os         1 ZPN      -0.444000
     21 C16          1.5060    -2.6920    -0.2020 c2         1 ZPN      -0.204200
     22 C17          0.5760    -2.9610    -1.1210 c2         1 ZPN      -0.105400
     23 C23          0.8190    -3.0970    -2.5940 c3         1 ZPN      -0.057900
     24 C18         -0.8590    -3.1500    -0.7040 c3         1 ZPN      -0.054200
     25 C19         -1.7130    -1.9150    -0.9770 c3         1 ZPN       0.131300
     26 O19         -1.2300    -0.8490    -0.1630 os         1 ZPN      -0.435100
     27 C20         -3.1830    -2.1240    -0.5990 c3         1 ZPN       0.326700
     28 O20         -3.7320    -3.2100    -1.2920 oh         1 ZPN      -0.647000
     29 N20         -3.9070    -0.9010    -0.8050 ns         1 ZPN      -0.538900
     30 C24         -5.0120    -0.5680    -0.0890 c          1 ZPN       0.618300
     31 O3          -5.4450    -1.2860     0.8030 o          1 ZPN      -0.591100
     32 C25         -5.6040     0.7240    -0.4830 ce         1 ZPN      -0.308200
     33 C26         -6.7560     1.2440    -0.0240 cf         1 ZPN      -0.082000
     34 C27         -7.7010     0.6980     0.9270 cf         1 ZPN      -0.209000
     35 C28         -8.8150     1.3670     1.2540 c2         1 ZPN      -0.182200
     36 C29         -9.8480     0.8830     2.2070 c3         1 ZPN      -0.064900
     37 H21         -0.3710     0.9280     1.3320 ha         1 ZPN       0.203000
     38 H31          1.1040     2.1370    -1.0590 ha         1 ZPN       0.189000
     39 H41          0.9060     2.9960     1.9210 ha         1 ZPN       0.182000
     40 H211         2.1580     4.8000     2.6300 hc         1 ZPN       0.048367
     41 H212         3.6900     5.0330     1.7860 hc         1 ZPN       0.048367
     42 H213         2.3080     6.0130     1.3510 hc         1 ZPN       0.048367
     43 H62          2.4090     3.5270    -1.4770 hc         1 ZPN       0.078200
     44 H61          2.6500     5.2130    -1.0760 hc         1 ZPN       0.078200
     45 H81          5.9720     2.8500     0.0190 hc         1 ZPN       0.064700
     46 H82          4.5830     2.9090     1.1010 hc         1 ZPN       0.064700
     47 H91          3.3300     1.3320    -0.3200 hc         1 ZPN       0.053700
     48 H92          4.6020     1.3490    -1.5280 hc         1 ZPN       0.053700
     49 H102         6.2070     0.4420     0.1560 hc         1 ZPN       0.048700
     50 H162         4.9390     0.4010     1.3640 hc         1 ZPN       0.048700
     51 H141         4.9540    -1.1500    -1.2580 h1         1 ZPN       0.031700
     52 H151         6.2850    -2.6510    -0.1850 hc         1 ZPN       0.051700
     53 H142         6.3170    -1.6690     1.2700 hc         1 ZPN       0.051700
     54 H223         5.6630    -3.0500     3.1330 ha         1 ZPN       0.164000
     55 H222         4.2420    -4.2150     2.9660 ha         1 ZPN       0.164000
     56 H121         4.1880    -4.3780    -0.4180 hc         1 ZPN       0.053700
     57 H122         3.0180    -4.3300     0.8920 hc         1 ZPN       0.053700
     58 H111         3.2190    -2.6270    -1.4870 h1         1 ZPN       0.037700
     59 H101         1.1950    -2.6270     0.8390 ha         1 ZPN       0.184000
     60 H231         1.8350    -2.8550    -2.8960 hc         1 ZPN       0.043367
     61 H232         0.6050    -4.1170    -2.9230 hc         1 ZPN       0.043367
     62 H233         0.1470    -2.4430    -3.1520 hc         1 ZPN       0.043367
     63 H181        -1.2890    -3.9930    -1.2510 hc         1 ZPN       0.066200
     64 H182        -0.9240    -3.3920     0.3600 hc         1 ZPN       0.066200
     65 H191        -1.6540    -1.6390    -2.0360 h1         1 ZPN       0.064700
     66 H201        -3.2520    -2.3850     0.4580 h2         1 ZPN       0.119700
     67 H202        -3.6960    -3.0310    -2.2390 ho         1 ZPN       0.438000
     68 H203        -3.6380    -0.3090    -1.5760 hn         1 ZPN       0.309500
     69 H2'1        -5.0550     1.3040    -1.2150 ha         1 ZPN       0.174000
     70 H3'1        -7.0280     2.2150    -0.4300 ha         1 ZPN       0.163000
     71 H4'1        -7.5030    -0.2670     1.3720 ha         1 ZPN       0.211000
     72 H6          -8.9980     2.3370     0.7980 ha         1 ZPN       0.162000
     73 H7         -10.8220     0.8130     1.7170 hc         1 ZPN       0.045700
     74 H8          -9.6000    -0.0940     2.6190 hc         1 ZPN       0.045700
     75 H9          -9.9710     1.5860     3.0340 hc         1 ZPN       0.045700
@<TRIPOS>BOND
     1     1     2 2   
     2     1     3 1   
     3     1    26 1   
     4     3     4 2   
     5     3    37 1   
     6     4     5 1   
     7     4    38 1   
     8     5     6 2   
     9     5    39 1   
    10     6     7 1   
    11     6     8 1   
    12     7    40 1   
    13     7    41 1   
    14     7    42 1   
    15     8     9 1   
    16     8    43 1   
    17     8    44 1   
    18     9    10 2   
    19     9    11 1   
    20    11    12 1   
    21    11    45 1   
    22    11    46 1   
    23    12    13 1   
    24    12    47 1   
    25    12    48 1   
    26    13    14 1   
    27    13    49 1   
    28    13    50 1   
    29    14    15 1   
    30    14    20 1   
    31    14    51 1   
    32    15    16 1   
    33    15    52 1   
    34    15    53 1   
    35    16    17 2   
    36    16    18 1   
    37    17    54 1   
    38    17    55 1   
    39    18    19 1   
    40    18    56 1   
    41    18    57 1   
    42    19    20 1   
    43    19    21 1   
    44    19    58 1   
    45    21    22 2   
    46    21    59 1   
    47    22    23 1   
    48    22    24 1   
    49    23    60 1   
    50    23    61 1   
    51    23    62 1   
    52    24    25 1   
    53    24    63 1   
    54    24    64 1   
    55    25    26 1   
    56    25    27 1   
    57    25    65 1   
    58    27    28 1   
    59    27    29 1   
    60    27    66 1   
    61    28    67 1   
    62    29    30 1   
    63    29    68 1   
    64    30    31 2   
    65    30    32 1   
    66    32    33 2   
    67    32    69 1   
    68    33    34 1   
    69    33    70 1   
    70    34    35 2   
    71    34    71 1   
    72    35    36 1   
    73    35    72 1   
    74    36    73 1   
    75    36    74 1   
    76    36    75 1   
@<TRIPOS>SUBSTRUCTURE
     1 ZPN         1 TEMP              0 ****  ****    0 ROOT
