@<TRIPOS>MOLECULE
ZPO
   15    15     1     0     0
SMALL
No Charge or Current Charge


@<TRIPOS>ATOM
      1 N           -0.7950    -1.2030     0.2570 n7         1 ZPO      -0.538400
      2 CB          -0.8440     1.2330     0.0340 c5         1 ZPO       0.108000
      3 CG          -2.2660     0.6360     0.1960 c5         1 ZPO      -0.138400
      4 O            1.9340     1.1900    -0.1160 o          1 ZPO      -0.730500
      5 CD          -2.0540    -0.7800    -0.3870 c5         1 ZPO       0.113800
      6 NA          -0.0010     0.0180     0.1340 n          1 ZPO      -0.385200
      7 H           -0.9620    -1.3760     1.2570 hn         1 ZPO       0.362000
      8 HB3         -0.7190     1.7100    -0.9480 h1         1 ZPO       0.028200
      9 HB2         -0.6140     1.9700     0.8160 h1         1 ZPO       0.028200
     10 HG2         -2.5640     0.5920     1.2500 hc         1 ZPO       0.024700
     11 HG3         -3.0290     1.2100    -0.3420 hc         1 ZPO       0.024700
     12 HD2         -1.9370    -0.7460    -1.4800 h1         1 ZPO       0.036200
     13 HD3         -2.8810    -1.4630    -0.1510 h1         1 ZPO       0.036200
     14 OXT          2.0580    -0.9460     0.0880 o          1 ZPO      -0.730500
     15 C            1.4170     0.0920     0.0240 c          1 ZPO       0.761000
@<TRIPOS>BOND
     1     1     5 1   
     2     1     6 1   
     3     1     7 1   
     4     2     3 1   
     5     2     6 1   
     6     2     8 1   
     7     2     9 1   
     8     3     5 1   
     9     3    10 1   
    10     3    11 1   
    11     4    15 1   
    12     5    12 1   
    13     5    13 1   
    14     6    15 1   
    15    14    15 1   
@<TRIPOS>SUBSTRUCTURE
     1 ZPO         1 TEMP              0 ****  ****    0 ROOT
