@<TRIPOS>MOLECULE
ZPO
   15    15     1     0     0
SMALL
bcc


@<TRIPOS>ATOM
      1 N           -0.7390    -1.1390     0.2960 n7         1 ZPO      -0.483200
      2 CB          -0.8440     1.2330     0.1470 c5         1 ZPO       0.108000
      3 CG          -2.2620     0.6550     0.1070 c5         1 ZPO      -0.138400
      4 O            1.8590     1.1960    -0.2250 o          1 ZPO      -0.835800
      5 CD          -2.0010    -0.7840    -0.3370 c5         1 ZPO       0.113800
      6 NA           0.0020     0.0540     0.2670 n          1 ZPO      -0.452200
      7 H           -0.9370    -1.3620     1.2680 hn         1 ZPO       0.306800
      8 HB3         -0.6200     1.7860    -0.7680 h1         1 ZPO       0.028200
      9 HB2         -0.7160     1.9290     0.9820 h1         1 ZPO       0.028200
     10 HG2         -2.7180     0.6640     1.1000 hc         1 ZPO       0.024700
     11 HG3         -2.9190     1.2050    -0.5670 hc         1 ZPO       0.024700
     12 HD2         -1.8920    -0.8370    -1.4240 h1         1 ZPO       0.036200
     13 HD3         -2.7830    -1.4840    -0.0410 h1         1 ZPO       0.036200
     14 OXT          1.9500    -1.0380    -0.1150 o          1 ZPO      -0.835800
     15 C            1.3620     0.0590    -0.0570 c          1 ZPO       1.038600
@<TRIPOS>BOND
     1     1     5 1   
     2     1     6 1   
     3     1     7 1   
     4     2     3 1   
     5     2     6 1   
     6     2     8 1   
     7     2     9 1   
     8     3     5 1   
     9     3    10 1   
    10     3    11 1   
    11     4    15 1   
    12     5    12 1   
    13     5    13 1   
    14     6    15 1   
    15    14    15 1   
@<TRIPOS>SUBSTRUCTURE
     1 ZPO         1 TEMP              0 ****  ****    0 ROOT
