@<TRIPOS>MOLECULE
ZPQ
   99    99     1     0     0
SMALL
No Charge or Current Charge


@<TRIPOS>ATOM
      1 C11          8.7390    -0.0910    -3.7150 cc         1 ZPQ      -0.225000
      2 C12          9.2350     1.1080    -3.1900 cc         1 ZPQ       0.266300
      3 N11          8.8360     1.3460    -1.9570 nd         1 ZPQ      -0.500800
      4 N12          8.0340     0.2390    -1.6750 na         1 ZPQ       0.105800
      5 C13          7.9670    -0.6600    -2.7520 cd         1 ZPQ      -0.117300
      6 C14         10.1360     2.0220    -3.9690 c3         1 ZPQ      -0.121400
      7 C15          7.3710     0.0910    -0.3600 c3         1 ZPQ       0.339600
      8 O11          5.9560     0.2940    -0.5380 os         1 ZPQ      -0.464100
      9 C16          5.1810     0.1730     0.5670 c          1 ZPQ       0.659100
     10 C17          7.1890    -1.9510    -2.7700 c3         1 ZPQ      -0.034800
     11 O12          5.5720    -0.1210     1.6840 o          1 ZPQ      -0.535000
     12 N2           3.8790     0.3740     0.2150 ns         1 ZPQ      -0.495900
     13 C21          2.7230     0.2750     1.1260 c3         1 ZPQ       0.077700
     14 C22          2.1880     1.6910     1.4820 c3         1 ZPQ      -0.335400
     15 S2           3.2420     2.6220     2.6120 s6         1 ZPQ       1.089000
     16 O22          4.4390     3.0570     1.8820 o          1 ZPQ      -0.501500
     17 O23          3.3840     1.8410     3.8450 o          1 ZPQ      -0.501500
     18 C23          2.2840     4.0830     3.0000 c3         1 ZPQ      -0.339100
     19 C25          1.6140    -0.6130     0.4790 c          1 ZPQ       0.594100
     20 O2           1.6280    -0.9520    -0.6990 o          1 ZPQ      -0.594100
     21 N3           0.6000    -0.9950     1.3360 ns         1 ZPQ      -0.502900
     22 C31         -0.5320    -1.8640     0.9690 c3         1 ZPQ       0.080700
     23 C32         -1.8370    -1.0550     0.6830 c3         1 ZPQ       0.150300
     24 C33         -0.7410    -2.9690     2.0400 c3         1 ZPQ      -0.087400
     25 C34          0.4960    -3.8650     2.3390 c3         1 ZPQ      -0.058700
     26 C35          0.1920    -4.8540     3.4880 c3         1 ZPQ      -0.091600
     27 C36          1.0070    -4.6200     1.0880 c3         1 ZPQ      -0.091600
     28 C37         -1.7180    -0.1090    -0.5410 c3         1 ZPQ      -0.105400
     29 C38         -3.0190     0.6690    -0.9000 c3         1 ZPQ      -0.130700
     30 C39         -2.8270     1.5450    -2.1610 c3         1 ZPQ      -0.081100
     31 C30         -4.2380    -0.2650    -1.0660 c          1 ZPQ       0.600100
     32 O31         -2.2120    -0.2830     1.8350 oh         1 ZPQ      -0.662000
     33 O32         -4.2700    -1.1680    -1.8910 o          1 ZPQ      -0.615100
     34 N4          -5.2960    -0.0010    -0.2240 ns         1 ZPQ      -0.486900
     35 C41         -6.6010    -0.7040    -0.2400 c3         1 ZPQ       0.038700
     36 C42         -6.7620    -1.6300     1.0090 c3         1 ZPQ      -0.067700
     37 C43         -8.0910    -2.4260     0.9950 c3         1 ZPQ      -0.093100
     38 C44         -5.5650    -2.5950     1.1980 c3         1 ZPQ      -0.093100
     39 C45         -7.7370     0.3580    -0.3430 c          1 ZPQ       0.590100
     40 O4          -7.6540     1.4700     0.1660 o          1 ZPQ      -0.607100
     41 N5          -8.8430    -0.0310    -1.0730 ns         1 ZPQ      -0.492900
     42 C51        -10.0070     0.8160    -1.3540 c3         1 ZPQ       0.100000
     43 C52         -9.9680     1.4440    -2.7700 c3         1 ZPQ      -0.081700
     44 C53        -11.2790     2.2040    -3.0720 c3         1 ZPQ      -0.088600
     45 C54         -8.7350     2.3530    -2.9940 c3         1 ZPQ      -0.088600
     46 H11          8.9460    -0.4750    -4.7090 ha         1 ZPQ       0.143000
     47 H141        11.0720     1.5130    -4.2270 hc         1 ZPQ       0.047700
     48 H142         9.6530     2.3400    -4.8990 hc         1 ZPQ       0.047700
     49 H143        10.3870     2.9210    -3.3930 hc         1 ZPQ       0.047700
     50 H151         7.7990     0.8290     0.3280 h2         1 ZPQ       0.080700
     51 H152         7.5890    -0.9140     0.0170 h2         1 ZPQ       0.080700
     52 H171         7.5290    -2.6290    -1.9780 hc         1 ZPQ       0.052367
     53 H172         6.1180    -1.7680    -2.6220 hc         1 ZPQ       0.052367
     54 H173         7.3090    -2.4710    -3.7280 hc         1 ZPQ       0.052367
     55 HN2          3.7130     0.5430    -0.7700 hn         1 ZPQ       0.354500
     56 H21          3.0260    -0.2480     2.0450 h1         1 ZPQ       0.106700
     57 H221         2.0660     2.3040     0.5820 h1         1 ZPQ       0.104700
     58 H222         1.2220     1.6170     1.9940 h1         1 ZPQ       0.104700
     59 H231         1.3500     3.7560     3.4700 h1         1 ZPQ       0.105033
     60 H232         2.8790     4.6940     3.6870 h1         1 ZPQ       0.105033
     61 H233         2.0920     4.6150     2.0630 h1         1 ZPQ       0.105033
     62 HN3          0.6820    -0.7000     2.3020 hn         1 ZPQ       0.319500
     63 H31         -0.2820    -2.3770     0.0310 h1         1 ZPQ       0.091700
     64 H32         -2.6190    -1.7920     0.4570 h1         1 ZPQ       0.084700
     65 H331        -1.0610    -2.4930     2.9760 hc         1 ZPQ       0.053200
     66 H332        -1.5730    -3.6100     1.7240 hc         1 ZPQ       0.053200
     67 H34          1.3110    -3.2190     2.6870 hc         1 ZPQ       0.045700
     68 H351        -0.6130    -5.5440     3.2070 hc         1 ZPQ       0.036200
     69 H352         1.0810    -5.4470     3.7350 hc         1 ZPQ       0.036200
     70 H353        -0.1160    -4.3160     4.3920 hc         1 ZPQ       0.036200
     71 H361         1.3630    -3.9220     0.3220 hc         1 ZPQ       0.036200
     72 H362         1.8460    -5.2760     1.3490 hc         1 ZPQ       0.036200
     73 H363         0.2130    -5.2380     0.6520 hc         1 ZPQ       0.036200
     74 H371        -1.4140    -0.7070    -1.4090 hc         1 ZPQ       0.061700
     75 H372        -0.9120     0.6150    -0.3680 hc         1 ZPQ       0.061700
     76 H38         -3.2350     1.3580    -0.0740 hc         1 ZPQ       0.054700
     77 H391        -3.7370     2.1190    -2.3740 hc         1 ZPQ       0.045367
     78 H392        -2.0030     2.2560    -2.0190 hc         1 ZPQ       0.045367
     79 H393        -2.5990     0.9270    -3.0380 hc         1 ZPQ       0.045367
     80 HO31        -1.5160     0.3940     1.9610 ho         1 ZPQ       0.439000
     81 HN4         -5.1830     0.7780     0.4150 hn         1 ZPQ       0.331500
     82 H41         -6.6570    -1.3240    -1.1440 h1         1 ZPQ       0.069700
     83 H42         -6.7880    -0.9830     1.8960 hc         1 ZPQ       0.066700
     84 H431        -8.1690    -3.0420     0.0900 hc         1 ZPQ       0.039533
     85 H432        -8.1540    -3.0920     1.8640 hc         1 ZPQ       0.039533
     86 H433        -8.9580    -1.7570     1.0380 hc         1 ZPQ       0.039533
     87 H441        -4.6480    -2.0410     1.4210 hc         1 ZPQ       0.039533
     88 H442        -5.7420    -3.2780     2.0380 hc         1 ZPQ       0.039533
     89 H443        -5.4000    -3.1970     0.2960 hc         1 ZPQ       0.039533
     90 HN5         -8.8270    -0.9660    -1.4630 hn         1 ZPQ       0.312500
     91 H511       -10.0780     1.6110    -0.5990 h1         1 ZPQ       0.054700
     92 H512       -10.9070     0.1940    -1.2600 h1         1 ZPQ       0.054700
     93 H52         -9.9010     0.6200    -3.4920 hc         1 ZPQ       0.044700
     94 H531       -11.2750     2.5950    -4.0970 hc         1 ZPQ       0.036700
     95 H532       -12.1460     1.5400    -2.9680 hc         1 ZPQ       0.036700
     96 H533       -11.4080     3.0490    -2.3840 hc         1 ZPQ       0.036700
     97 H541        -8.7160     3.1720    -2.2640 hc         1 ZPQ       0.036700
     98 H542        -7.8020     1.7850    -2.8990 hc         1 ZPQ       0.036700
     99 H543        -8.7540     2.7910    -3.9990 hc         1 ZPQ       0.036700
@<TRIPOS>BOND
     1     1     2 1   
     2     1     5 2   
     3     1    46 1   
     4     2     3 2   
     5     2     6 1   
     6     3     4 1   
     7     4     5 1   
     8     4     7 1   
     9     5    10 1   
    10     6    47 1   
    11     6    48 1   
    12     6    49 1   
    13     7     8 1   
    14     7    50 1   
    15     7    51 1   
    16     8     9 1   
    17     9    11 2   
    18     9    12 1   
    19    10    52 1   
    20    10    53 1   
    21    10    54 1   
    22    12    13 1   
    23    12    55 1   
    24    13    14 1   
    25    13    19 1   
    26    13    56 1   
    27    14    15 1   
    28    14    57 1   
    29    14    58 1   
    30    15    16 2   
    31    15    17 2   
    32    15    18 1   
    33    18    59 1   
    34    18    60 1   
    35    18    61 1   
    36    19    20 2   
    37    19    21 1   
    38    21    22 1   
    39    21    62 1   
    40    22    23 1   
    41    22    24 1   
    42    22    63 1   
    43    23    28 1   
    44    23    32 1   
    45    23    64 1   
    46    24    25 1   
    47    24    65 1   
    48    24    66 1   
    49    25    26 1   
    50    25    27 1   
    51    25    67 1   
    52    26    68 1   
    53    26    69 1   
    54    26    70 1   
    55    27    71 1   
    56    27    72 1   
    57    27    73 1   
    58    28    29 1   
    59    28    74 1   
    60    28    75 1   
    61    29    30 1   
    62    29    31 1   
    63    29    76 1   
    64    30    77 1   
    65    30    78 1   
    66    30    79 1   
    67    31    33 2   
    68    31    34 1   
    69    32    80 1   
    70    34    35 1   
    71    34    81 1   
    72    35    36 1   
    73    35    39 1   
    74    35    82 1   
    75    36    37 1   
    76    36    38 1   
    77    36    83 1   
    78    37    84 1   
    79    37    85 1   
    80    37    86 1   
    81    38    87 1   
    82    38    88 1   
    83    38    89 1   
    84    39    40 2   
    85    39    41 1   
    86    41    42 1   
    87    41    90 1   
    88    42    43 1   
    89    42    91 1   
    90    42    92 1   
    91    43    44 1   
    92    43    45 1   
    93    43    93 1   
    94    44    94 1   
    95    44    95 1   
    96    44    96 1   
    97    45    97 1   
    98    45    98 1   
    99    45    99 1   
@<TRIPOS>SUBSTRUCTURE
     1 ZPQ         1 TEMP              0 ****  ****    0 ROOT
