@<TRIPOS>MOLECULE
ZPQ
   99    99     1     0     0
SMALL
bcc


@<TRIPOS>ATOM
      1 C11          9.2080    -0.6760    -2.7070 cc         1 ZPQ      -0.308300
      2 C12          9.3000     0.7040    -2.4120 cc         1 ZPQ       0.331600
      3 N11          8.5830     1.0000    -1.3500 nd         1 ZPQ      -0.500800
      4 N12          8.0430    -0.1600    -0.9450 na         1 ZPQ       0.084400
      5 C13          8.3830    -1.2010    -1.7460 cd         1 ZPQ      -0.066600
      6 C14         10.0850     1.7410    -3.1370 c3         1 ZPQ      -0.121400
      7 C15          7.1260    -0.1720     0.1370 c3         1 ZPQ       0.287100
      8 O11          5.8260     0.0690    -0.3990 os         1 ZPQ      -0.440900
      9 C16          4.8180     0.0800     0.4800 c          1 ZPQ       0.775100
     10 C17          7.8980    -2.5890    -1.5300 c3         1 ZPQ      -0.034800
     11 O12          4.9600    -0.0870     1.6710 o          1 ZPQ      -0.584000
     12 N2           3.6430     0.2750    -0.1490 ns         1 ZPQ      -0.562900
     13 C21          2.4120     0.4590     0.5630 c3         1 ZPQ       0.077700
     14 C22          1.9500     1.9200     0.5770 c3         1 ZPQ      -0.224600
     15 S2           3.0380     2.9620     1.5580 s6         1 ZPQ       1.009000
     16 O22          4.3170     3.1170     0.8670 o          1 ZPQ      -0.572300
     17 O23          3.0460     2.4420     2.9250 o          1 ZPQ      -0.572300
     18 C23          2.1930     4.5260     1.5470 c3         1 ZPQ      -0.228300
     19 C25          1.3030    -0.3460    -0.1210 c          1 ZPQ       0.661100
     20 O2           1.2540    -0.4140    -1.3380 o          1 ZPQ      -0.594100
     21 N3           0.4100    -0.8840     0.7180 ns         1 ZPQ      -0.569900
     22 C31         -0.7590    -1.6420     0.3060 c3         1 ZPQ       0.080700
     23 C32         -2.0420    -0.8200     0.5150 c3         1 ZPQ       0.127100
     24 C33         -0.8240    -2.9750     1.0470 c3         1 ZPQ      -0.087400
     25 C34          0.4050    -3.8740     0.8990 c3         1 ZPQ      -0.058700
     26 C35          0.1910    -5.1640     1.6870 c3         1 ZPQ      -0.091600
     27 C36          0.7260    -4.1880    -0.5590 c3         1 ZPQ      -0.091600
     28 C37         -2.1160     0.3710    -0.4350 c3         1 ZPQ      -0.105400
     29 C38         -3.3610     1.2510    -0.2660 c3         1 ZPQ      -0.130700
     30 C39         -3.3260     2.4210    -1.2420 c3         1 ZPQ      -0.081100
     31 C30         -4.6110     0.4180    -0.4900 c          1 ZPQ       0.667100
     32 O31         -2.2070    -0.4400     1.8650 oh         1 ZPQ      -0.599800
     33 O32         -4.9800     0.0920    -1.6110 o          1 ZPQ      -0.615100
     34 N4          -5.2650     0.0360     0.6190 ns         1 ZPQ      -0.553900
     35 C41         -6.4650    -0.7630     0.5750 c3         1 ZPQ       0.038700
     36 C42         -6.7080    -1.4360     1.9340 c3         1 ZPQ      -0.067700
     37 C43         -8.0130    -2.2260     1.9310 c3         1 ZPQ      -0.093100
     38 C44         -5.5400    -2.3490     2.2960 c3         1 ZPQ      -0.093100
     39 C45         -7.6460     0.1300     0.1880 c          1 ZPQ       0.657100
     40 O4          -7.8430     1.1870     0.7690 o          1 ZPQ      -0.607100
     41 N5          -8.4260    -0.3530    -0.7880 ns         1 ZPQ      -0.559900
     42 C51         -9.5820     0.3180    -1.3340 c3         1 ZPQ       0.100000
     43 C52         -9.3350     0.9260    -2.7160 c3         1 ZPQ      -0.081700
     44 C53        -10.6380     1.5100    -3.2500 c3         1 ZPQ      -0.088600
     45 C54         -8.2330     1.9770    -2.6860 c3         1 ZPQ      -0.088600
     46 H11          9.6870    -1.2100    -3.5110 ha         1 ZPQ       0.161000
     47 H141        11.1580     1.5840    -3.0100 hc         1 ZPQ       0.047700
     48 H142         9.8800     1.7120    -4.2070 hc         1 ZPQ       0.047700
     49 H143         9.8470     2.7380    -2.7710 hc         1 ZPQ       0.047700
     50 H151         7.4050     0.6090     0.8440 h2         1 ZPQ       0.080700
     51 H152         7.1590    -1.1400     0.6350 h2         1 ZPQ       0.080700
     52 H171         8.1800    -2.9700    -0.5470 hc         1 ZPQ       0.052367
     53 H172         6.8120    -2.6570    -1.6100 hc         1 ZPQ       0.052367
     54 H173         8.3290    -3.2500    -2.2790 hc         1 ZPQ       0.052367
     55 HN2          3.6370     0.4330    -1.1460 hn         1 ZPQ       0.354500
     56 H21          2.5510     0.1130     1.5880 h1         1 ZPQ       0.106700
     57 H221         1.9120     2.3330    -0.4320 h1         1 ZPQ       0.104700
     58 H222         0.9600     2.0060     1.0270 h1         1 ZPQ       0.104700
     59 H231         1.2080     4.4120     1.9940 h1         1 ZPQ       0.105033
     60 H232         2.7920     5.2180     2.1370 h1         1 ZPQ       0.105033
     61 H233         2.1090     4.8870     0.5240 h1         1 ZPQ       0.105033
     62 HN3          0.6100    -0.8470     1.7070 hn         1 ZPQ       0.319500
     63 H31         -0.6640    -1.8290    -0.7640 h1         1 ZPQ       0.091700
     64 H32         -2.8760    -1.4960     0.2990 h1         1 ZPQ       0.084700
     65 H331        -1.0090    -2.7890     2.1090 hc         1 ZPQ       0.053200
     66 H332        -1.7030    -3.5110     0.6740 hc         1 ZPQ       0.053200
     67 H34          1.2670    -3.3570     1.3340 hc         1 ZPQ       0.045700
     68 H351        -0.6540    -5.7290     1.2880 hc         1 ZPQ       0.036200
     69 H352         1.0710    -5.8060     1.6360 hc         1 ZPQ       0.036200
     70 H353        -0.0130    -4.9630     2.7400 hc         1 ZPQ       0.036200
     71 H361         1.0100    -3.2980    -1.1220 hc         1 ZPQ       0.036200
     72 H362         1.5580    -4.8900    -0.6290 hc         1 ZPQ       0.036200
     73 H363        -0.1320    -4.6410    -1.0610 hc         1 ZPQ       0.036200
     74 H371        -2.0740     0.0000    -1.4630 hc         1 ZPQ       0.061700
     75 H372        -1.2380     1.0130    -0.3070 hc         1 ZPQ       0.061700
     76 H38         -3.3690     1.6520     0.7510 hc         1 ZPQ       0.054700
     77 H391        -4.1990     3.0640    -1.1290 hc         1 ZPQ       0.045367
     78 H392        -2.4400     3.0330    -1.0680 hc         1 ZPQ       0.045367
     79 H393        -3.2960     2.0730    -2.2740 hc         1 ZPQ       0.045367
     80 HO31        -1.5970     0.2780     2.0640 ho         1 ZPQ       0.400000
     81 HN4         -4.9320     0.3550     1.5140 hn         1 ZPQ       0.331500
     82 H41         -6.3300    -1.5500    -0.1740 h1         1 ZPQ       0.069700
     83 H42         -6.7890    -0.6460     2.6900 hc         1 ZPQ       0.066700
     84 H431        -8.0160    -2.9790     1.1390 hc         1 ZPQ       0.039533
     85 H432        -8.1350    -2.7480     2.8800 hc         1 ZPQ       0.039533
     86 H433        -8.8890    -1.5930     1.7950 hc         1 ZPQ       0.039533
     87 H441        -4.5970    -1.8100     2.3830 hc         1 ZPQ       0.039533
     88 H442        -5.7240    -2.8390     3.2530 hc         1 ZPQ       0.039533
     89 H443        -5.4100    -3.1290     1.5420 hc         1 ZPQ       0.039533
     90 HN5         -8.1490    -1.2140    -1.2310 hn         1 ZPQ       0.312500
     91 H511        -9.8910     1.0980    -0.6360 h1         1 ZPQ       0.054700
     92 H512       -10.4010    -0.4030    -1.3940 h1         1 ZPQ       0.054700
     93 H52         -9.0240     0.1160    -3.3870 hc         1 ZPQ       0.044700
     94 H531       -10.5100     1.9020    -4.2590 hc         1 ZPQ       0.036700
     95 H532       -11.4330     0.7620    -3.2860 hc         1 ZPQ       0.036700
     96 H533       -10.9840     2.3330    -2.6190 hc         1 ZPQ       0.036700
     97 H541        -8.4960     2.7970    -2.0140 hc         1 ZPQ       0.036700
     98 H542        -7.2810     1.5620    -2.3540 hc         1 ZPQ       0.036700
     99 H543        -8.0760     2.4010    -3.6800 hc         1 ZPQ       0.036700
@<TRIPOS>BOND
     1     1     2 1   
     2     1     5 2   
     3     1    46 1   
     4     2     3 2   
     5     2     6 1   
     6     3     4 1   
     7     4     5 1   
     8     4     7 1   
     9     5    10 1   
    10     6    47 1   
    11     6    48 1   
    12     6    49 1   
    13     7     8 1   
    14     7    50 1   
    15     7    51 1   
    16     8     9 1   
    17     9    11 2   
    18     9    12 1   
    19    10    52 1   
    20    10    53 1   
    21    10    54 1   
    22    12    13 1   
    23    12    55 1   
    24    13    14 1   
    25    13    19 1   
    26    13    56 1   
    27    14    15 1   
    28    14    57 1   
    29    14    58 1   
    30    15    16 2   
    31    15    17 2   
    32    15    18 1   
    33    18    59 1   
    34    18    60 1   
    35    18    61 1   
    36    19    20 2   
    37    19    21 1   
    38    21    22 1   
    39    21    62 1   
    40    22    23 1   
    41    22    24 1   
    42    22    63 1   
    43    23    28 1   
    44    23    32 1   
    45    23    64 1   
    46    24    25 1   
    47    24    65 1   
    48    24    66 1   
    49    25    26 1   
    50    25    27 1   
    51    25    67 1   
    52    26    68 1   
    53    26    69 1   
    54    26    70 1   
    55    27    71 1   
    56    27    72 1   
    57    27    73 1   
    58    28    29 1   
    59    28    74 1   
    60    28    75 1   
    61    29    30 1   
    62    29    31 1   
    63    29    76 1   
    64    30    77 1   
    65    30    78 1   
    66    30    79 1   
    67    31    33 2   
    68    31    34 1   
    69    32    80 1   
    70    34    35 1   
    71    34    81 1   
    72    35    36 1   
    73    35    39 1   
    74    35    82 1   
    75    36    37 1   
    76    36    38 1   
    77    36    83 1   
    78    37    84 1   
    79    37    85 1   
    80    37    86 1   
    81    38    87 1   
    82    38    88 1   
    83    38    89 1   
    84    39    40 2   
    85    39    41 1   
    86    41    42 1   
    87    41    90 1   
    88    42    43 1   
    89    42    91 1   
    90    42    92 1   
    91    43    44 1   
    92    43    45 1   
    93    43    93 1   
    94    44    94 1   
    95    44    95 1   
    96    44    96 1   
    97    45    97 1   
    98    45    98 1   
    99    45    99 1   
@<TRIPOS>SUBSTRUCTURE
     1 ZPQ         1 TEMP              0 ****  ****    0 ROOT
