@<TRIPOS>MOLECULE
ZPR
   46    48     1     0     0
SMALL
bcc


@<TRIPOS>ATOM
      1 C20          0.3560    -1.0990    -5.1390 ca         1 ZPR      -0.102500
      2 C21          0.4450    -0.5670    -6.4190 ca         1 ZPR      -0.134500
      3 C22         -0.3850     0.4820    -6.7930 ca         1 ZPR      -0.117000
      4 C23         -1.3030     0.9950    -5.8850 ca         1 ZPR      -0.134500
      5 C24         -1.3890     0.4600    -4.6080 ca         1 ZPR      -0.102500
      6 C19         -0.5610    -0.5910    -4.2240 ca         1 ZPR      -0.101300
      7 C18         -0.6360    -1.1450    -2.8340 c3         1 ZPR       0.206700
      8 O17          0.2100    -0.3290    -2.0160 os         1 ZPR      -0.425900
      9 C15          0.3140    -0.6640    -0.7290 c          1 ZPR       0.770100
     10 O16         -0.2850    -1.5900    -0.2140 o          1 ZPR      -0.598000
     11 N14          1.1640     0.1370    -0.0670 n          1 ZPR      -0.465800
     12 C10          1.3490    -0.0380     1.3560 c5         1 ZPR       0.053700
     13 C8           0.0470     0.1750     2.1120 c          1 ZPR       0.667100
     14 O9          -0.8350     0.9010     1.6720 o          1 ZPR      -0.590100
     15 C11          2.3590     1.0650     1.7270 c5         1 ZPR      -0.087400
     16 C12          3.0750     1.3550     0.4110 c5         1 ZPR      -0.097400
     17 C13          1.9690     1.2140    -0.6250 c5         1 ZPR       0.121000
     18 C4          -0.8030    -0.6520     5.5200 c5         1 ZPR      -0.084400
     19 C5           0.1260    -1.8100     5.1750 c5         1 ZPR      -0.093400
     20 C1          -1.5200     1.3490     4.2230 c          1 ZPR       0.590900
     21 O2          -2.6260     1.8080     4.3470 o          1 ZPR      -0.501100
     22 N7          -0.0540    -0.3920     3.3230 n          1 ZPR      -0.478800
     23 C6           0.8980    -1.2980     3.9650 c5         1 ZPR       0.109000
     24 C3          -1.2250    -0.1260     4.1420 c5         1 ZPR      -0.014300
     25 H201         1.0020    -1.9210    -4.8530 ha         1 ZPR       0.134000
     26 H211         1.1590    -0.9730    -7.1230 ha         1 ZPR       0.132000
     27 H221        -0.3190     0.8960    -7.7910 ha         1 ZPR       0.130000
     28 H231        -1.9540     1.8100    -6.1740 ha         1 ZPR       0.132000
     29 H241        -2.1100     0.8610    -3.9050 ha         1 ZPR       0.134000
     30 H181        -0.2960    -2.1830    -2.8110 h1         1 ZPR       0.057200
     31 H182        -1.6620    -1.1150    -2.4590 h1         1 ZPR       0.057200
     32 H101         1.7680    -1.0250     1.5650 h1         1 ZPR       0.072700
     33 H111         1.8380     1.9620     2.0690 hc         1 ZPR       0.059200
     34 H112         3.0300     0.7470     2.5220 hc         1 ZPR       0.059200
     35 H121         3.5400     2.3400     0.3940 hc         1 ZPR       0.056200
     36 H122         3.8530     0.6100     0.2300 hc         1 ZPR       0.056200
     37 H131         1.3870     2.1360    -0.7110 h1         1 ZPR       0.061200
     38 H132         2.3510     0.9580    -1.6110 h1         1 ZPR       0.061200
     39 H42         -1.6640    -0.9440     6.1200 hc         1 ZPR       0.059200
     40 H51          0.7870    -2.0810     5.9960 hc         1 ZPR       0.059700
     41 H52         -0.4560    -2.6930     4.9040 hc         1 ZPR       0.059700
     42 H11         -0.6160     1.9860     4.2580 h4         1 ZPR      -0.013800
     43 H61          1.8010    -0.7630     4.2680 h1         1 ZPR       0.047700
     44 H62          1.1910    -2.1080     3.2970 h1         1 ZPR       0.047700
     45 H31         -2.1060    -0.6580     3.7720 h1         1 ZPR       0.091700
     46 H41         -0.2530     0.1170     6.0690 hc         1 ZPR       0.059200
@<TRIPOS>BOND
     1     1     2 ar  
     2     1     6 ar  
     3     1    25 1   
     4     2     3 ar  
     5     2    26 1   
     6     3     4 ar  
     7     3    27 1   
     8     4     5 ar  
     9     4    28 1   
    10     5     6 ar  
    11     5    29 1   
    12     6     7 1   
    13     7     8 1   
    14     7    30 1   
    15     7    31 1   
    16     8     9 1   
    17     9    10 2   
    18     9    11 1   
    19    11    12 1   
    20    11    17 1   
    21    12    13 1   
    22    12    15 1   
    23    12    32 1   
    24    13    14 2   
    25    13    22 1   
    26    15    16 1   
    27    15    33 1   
    28    15    34 1   
    29    16    17 1   
    30    16    35 1   
    31    16    36 1   
    32    17    37 1   
    33    17    38 1   
    34    18    19 1   
    35    18    24 1   
    36    18    39 1   
    37    18    46 1   
    38    19    23 1   
    39    19    40 1   
    40    19    41 1   
    41    20    21 2   
    42    20    24 1   
    43    20    42 1   
    44    22    23 1   
    45    22    24 1   
    46    23    43 1   
    47    23    44 1   
    48    24    45 1   
@<TRIPOS>SUBSTRUCTURE
     1 ZPR         1 TEMP              0 ****  ****    0 ROOT
