@<TRIPOS>MOLECULE
ZPR
   46    48     1     0     0
SMALL
No Charge or Current Charge


@<TRIPOS>ATOM
      1 C20          0.4760    -0.9890    -5.3670 ca         1 ZPR      -0.084500
      2 C21          0.6520    -0.4330    -6.6460 ca         1 ZPR      -0.116500
      3 C22         -0.1730     0.6200    -7.0760 ca         1 ZPR      -0.099000
      4 C23         -1.1740     1.1180    -6.2250 ca         1 ZPR      -0.116500
      5 C24         -1.3510     0.5630    -4.9450 ca         1 ZPR      -0.084500
      6 C19         -0.5280    -0.4950    -4.5100 ca         1 ZPR      -0.101300
      7 C18         -0.7180    -1.0960    -3.1240 c3         1 ZPR       0.229900
      8 O17          0.1260    -0.3850    -2.2050 os         1 ZPR      -0.449100
      9 C15          0.1050    -0.7710    -0.8940 c          1 ZPR       0.654100
     10 O16         -0.5590    -1.6980    -0.4550 o          1 ZPR      -0.549000
     11 N14          0.9950    -0.0160    -0.1130 n          1 ZPR      -0.398800
     12 C10          1.1230    -0.1910     1.3620 c5         1 ZPR       0.053700
     13 C8          -0.2130    -0.0300     2.1800 c          1 ZPR       0.600100
     14 O9          -1.2670     0.4230     1.7460 o          1 ZPR      -0.590100
     15 C11          2.0860     0.9820     1.7350 c5         1 ZPR      -0.087400
     16 C12          2.9510     1.1260     0.4580 c5         1 ZPR      -0.097400
     17 C13          1.8870     1.0250    -0.6620 c5         1 ZPR       0.121000
     18 C4          -0.4150    -0.4270     5.8780 c5         1 ZPR      -0.084400
     19 C5           0.4170    -1.6650     5.4690 c5         1 ZPR      -0.093400
     20 C1          -1.7010     1.3440     4.5940 c          1 ZPR       0.590900
     21 O2          -2.8840     1.6670     4.5450 o          1 ZPR      -0.501100
     22 N7          -0.0720    -0.3630     3.5540 n          1 ZPR      -0.411800
     23 C6           1.0050    -1.2270     4.1030 c5         1 ZPR       0.109000
     24 C3          -1.1560    -0.1110     4.5490 c5         1 ZPR      -0.014300
     25 H201         1.1220    -1.8020    -5.0410 ha         1 ZPR       0.116000
     26 H211         1.4280    -0.8180    -7.3040 ha         1 ZPR       0.114000
     27 H221        -0.0370     1.0500    -8.0660 ha         1 ZPR       0.112000
     28 H231        -1.8120     1.9350    -6.5550 ha         1 ZPR       0.114000
     29 H241        -2.1260     0.9560    -4.2910 ha         1 ZPR       0.116000
     30 H181        -0.4560    -2.1630    -3.1470 h1         1 ZPR       0.057200
     31 H182        -1.7720    -1.0140    -2.8280 h1         1 ZPR       0.057200
     32 H101         1.5730    -1.1690     1.5680 h1         1 ZPR       0.072700
     33 H111         1.5320     1.9090     1.9290 hc         1 ZPR       0.059200
     34 H112         2.6890     0.7740     2.6260 hc         1 ZPR       0.059200
     35 H121         3.5070     2.0690     0.4240 hc         1 ZPR       0.056200
     36 H122         3.6800     0.3110     0.3820 hc         1 ZPR       0.056200
     37 H131         1.3440     1.9710    -0.7960 h1         1 ZPR       0.061200
     38 H132         2.3360     0.7380    -1.6230 h1         1 ZPR       0.061200
     39 H42         -1.1040    -0.6340     6.7060 hc         1 ZPR       0.059200
     40 H51          1.1950    -1.9170     6.1980 hc         1 ZPR       0.059700
     41 H52         -0.2230    -2.5480     5.3550 hc         1 ZPR       0.059700
     42 H11         -0.9110     2.1240     4.6730 h4         1 ZPR      -0.013800
     43 H61          1.9320    -0.6540     4.2410 h1         1 ZPR       0.047700
     44 H62          1.2180    -2.0970     3.4690 h1         1 ZPR       0.047700
     45 H31         -2.0020    -0.7910     4.3830 h1         1 ZPR       0.091700
     46 H41          0.2370     0.3980     6.1910 hc         1 ZPR       0.059200
@<TRIPOS>BOND
     1     1     2 ar  
     2     1     6 ar  
     3     1    25 1   
     4     2     3 ar  
     5     2    26 1   
     6     3     4 ar  
     7     3    27 1   
     8     4     5 ar  
     9     4    28 1   
    10     5     6 ar  
    11     5    29 1   
    12     6     7 1   
    13     7     8 1   
    14     7    30 1   
    15     7    31 1   
    16     8     9 1   
    17     9    10 2   
    18     9    11 1   
    19    11    12 1   
    20    11    17 1   
    21    12    13 1   
    22    12    15 1   
    23    12    32 1   
    24    13    14 2   
    25    13    22 1   
    26    15    16 1   
    27    15    33 1   
    28    15    34 1   
    29    16    17 1   
    30    16    35 1   
    31    16    36 1   
    32    17    37 1   
    33    17    38 1   
    34    18    19 1   
    35    18    24 1   
    36    18    39 1   
    37    18    46 1   
    38    19    23 1   
    39    19    40 1   
    40    19    41 1   
    41    20    21 2   
    42    20    24 1   
    43    20    42 1   
    44    22    23 1   
    45    22    24 1   
    46    23    43 1   
    47    23    44 1   
    48    24    45 1   
@<TRIPOS>SUBSTRUCTURE
     1 ZPR         1 TEMP              0 ****  ****    0 ROOT
