@<TRIPOS>MOLECULE
ZPS
   16    16     1     0     0
SMALL
No Charge or Current Charge


@<TRIPOS>ATOM
      1 C01         11.2990    50.4250    49.8650 cy         1 ZPS      -0.125400
      2 C02         12.5180    49.4100    49.8690 cy         1 ZPS      -0.048900
      3 C03         12.0510    49.0840    48.4150 cy         1 ZPS      -0.280000
      4 C04         10.5980    49.5610    48.7340 cy         1 ZPS      -0.048900
      5 C05         12.0690    47.5530    48.1800 c          1 ZPS       0.746500
      6 C08         12.7310    50.0410    47.3910 c          1 ZPS       0.746500
      7 O06         12.9780    46.8470    48.5920 o          1 ZPS      -0.768250
      8 O07         11.1950    46.9870    47.5380 o          1 ZPS      -0.768250
      9 O09         13.9130    50.3450    47.4740 o          1 ZPS      -0.768250
     10 O10         12.1330    50.4860    46.4220 o          1 ZPS      -0.768250
     11 H1          11.5660    51.4400    49.5490 hc         1 ZPS      -0.002800
     12 H2          10.7480    50.5000    50.8080 hc         1 ZPS      -0.002800
     13 H3          12.3990    48.5940    50.5910 hc         1 ZPS       0.021700
     14 H4          13.5120    49.8510    50.0010 hc         1 ZPS       0.021700
     15 H5          10.0620    50.1220    47.9610 hc         1 ZPS       0.021700
     16 H6           9.9300    48.7890    49.1320 hc         1 ZPS       0.021700
@<TRIPOS>BOND
     1     1     2 1   
     2     1     4 1   
     3     1    11 1   
     4     1    12 1   
     5     2     3 1   
     6     2    13 1   
     7     2    14 1   
     8     3     4 1   
     9     3     5 1   
    10     3     6 1   
    11     4    15 1   
    12     4    16 1   
    13     5     7 1   
    14     5     8 1   
    15     6     9 1   
    16     6    10 1   
@<TRIPOS>SUBSTRUCTURE
     1 ZPS         1 TEMP              0 ****  ****    0 ROOT
