@<TRIPOS>MOLECULE
ZPS
   16    16     1     0     0
SMALL
abcg2


@<TRIPOS>ATOM
      1 C01         11.2630    50.4240    49.9510 cy         1 ZPS      -0.125400
      2 C02         12.4560    49.4540    49.8850 cy         1 ZPS      -0.048900
      3 C03         12.0210    49.0780    48.4550 cy         1 ZPS      -0.280000
      4 C04         10.6260    49.6530    48.7790 cy         1 ZPS      -0.048900
      5 C05         12.1280    47.5930    48.0790 c          1 ZPS       0.746500
      6 C08         12.7430    49.8870    47.3460 c          1 ZPS       0.746500
      7 O06         13.2120    47.0350    48.3590 o          1 ZPS      -0.768250
      8 O07         11.1480    47.0620    47.5180 o          1 ZPS      -0.768250
      9 O09         13.9080    50.2740    47.5690 o          1 ZPS      -0.768250
     10 O10         12.1000    50.0620    46.2900 o          1 ZPS      -0.768250
     11 H1          11.5490    51.4370    49.6630 hc         1 ZPS      -0.002800
     12 H2          10.7030    50.4810    50.8870 hc         1 ZPS      -0.002800
     13 H3          12.3280    48.6220    50.5810 hc         1 ZPS       0.021700
     14 H4          13.4570    49.8620    50.0200 hc         1 ZPS       0.021700
     15 H5          10.1200    50.2300    48.0040 hc         1 ZPS       0.021700
     16 H6           9.9400    48.8810    49.1330 hc         1 ZPS       0.021700
@<TRIPOS>BOND
     1     1     2 1   
     2     1     4 1   
     3     1    11 1   
     4     1    12 1   
     5     2     3 1   
     6     2    13 1   
     7     2    14 1   
     8     3     4 1   
     9     3     5 1   
    10     3     6 1   
    11     4    15 1   
    12     4    16 1   
    13     5     7 1   
    14     5     8 1   
    15     6     9 1   
    16     6    10 1   
@<TRIPOS>SUBSTRUCTURE
     1 ZPS         1 TEMP              0 ****  ****    0 ROOT
