@<TRIPOS>MOLECULE
ZPU
   34    35     1     0     0
SMALL
No Charge or Current Charge


@<TRIPOS>ATOM
      1 N1          39.0740    39.6870   141.0310 nb         1 ZPU      -0.677000
      2 C4          33.3880    41.8660   143.9330 ca         1 ZPU      -0.118500
      3 C5          34.5460    41.1150   143.6720 ca         1 ZPU      -0.068500
      4 C6          35.6170    41.6660   142.9330 ca         1 ZPU      -0.158600
      5 C7          35.4910    42.9960   142.4610 ca         1 ZPU      -0.068500
      6 C8          34.3300    43.7420   142.7250 ca         1 ZPU      -0.118500
      7 C10         39.0890    40.9490   141.5070 ca         1 ZPU       0.490900
      8 C13         41.4150    39.9440   140.4610 ca         1 ZPU      -0.199000
      9 N           37.8600    41.4470   141.9560 ns         1 ZPU      -0.327900
     10 C           32.3100    45.2400   144.6160 c3         1 ZPU      -0.085100
     11 O           36.9500    39.6790   143.0870 o          1 ZPU      -0.535100
     12 C11         40.2200    41.7790   141.4510 ca         1 ZPU      -0.218000
     13 C12         41.4170    41.2680   140.9280 ca         1 ZPU      -0.045000
     14 C14         40.2280    39.1940   140.5270 ca         1 ZPU       0.373900
     15 C2          31.2590    44.3720   142.4530 c3         1 ZPU      -0.085100
     16 C3          33.2680    43.1860   143.4630 ca         1 ZPU      -0.046300
     17 C9          36.8550    40.8270   142.6680 c          1 ZPU       0.625700
     18 H1          32.5800    41.4140   144.5060 ha         1 ZPU       0.116500
     19 H2          34.6060    40.0960   144.0500 ha         1 ZPU       0.121000
     20 H3          36.2830    43.4690   141.8850 ha         1 ZPU       0.121000
     21 H4          34.2600    44.7610   142.3510 ha         1 ZPU       0.116500
     22 H5          42.3150    39.5010   140.0440 ha         1 ZPU       0.126000
     23 H6          37.7000    42.4170   141.7290 hn         1 ZPU       0.152000
     24 H7          32.8160    44.9480   145.5440 hc         1 ZPU       0.036533
     25 H8          32.9570    45.9440   144.0790 hc         1 ZPU       0.036533
     26 H9          31.3840    45.7630   144.8840 hc         1 ZPU       0.036533
     27 H10         31.3120    43.3740   144.3390 hc         1 ZPU       0.052700
     28 H11         40.1670    42.8020   141.8150 ha         1 ZPU       0.118000
     29 H12         42.3170    41.8800   140.8790 ha         1 ZPU       0.118000
     30 H13         40.1990    38.1690   140.1600 h4         1 ZPU       0.023100
     31 H14         30.3140    44.8790   142.6800 hc         1 ZPU       0.036533
     32 H15         31.8640    45.0410   141.8300 hc         1 ZPU       0.036533
     33 H16         31.0300    43.4730   141.8680 hc         1 ZPU       0.036533
     34 C1          32.0020    43.9950   143.7540 c3         1 ZPU      -0.022400
@<TRIPOS>BOND
     1     1     7 ar  
     2     1    14 ar  
     3     2     3 ar  
     4     2    16 ar  
     5     2    18 1   
     6     3     4 ar  
     7     3    19 1   
     8     4     5 ar  
     9     4    17 1   
    10     5     6 ar  
    11     5    20 1   
    12     6    16 ar  
    13     6    21 1   
    14     7     9 1   
    15     7    12 ar  
    16     8    13 ar  
    17     8    14 ar  
    18     8    22 1   
    19     9    17 1   
    20     9    23 1   
    21    10    24 1   
    22    10    25 1   
    23    10    26 1   
    24    10    34 1   
    25    11    17 2   
    26    12    13 ar  
    27    12    28 1   
    28    13    29 1   
    29    14    30 1   
    30    15    31 1   
    31    15    32 1   
    32    15    33 1   
    33    15    34 1   
    34    16    34 1   
    35    27    34 1   
@<TRIPOS>SUBSTRUCTURE
     1 ZPU         1 TEMP              0 ****  ****    0 ROOT
