@<TRIPOS>MOLECULE
ZPU
   34    35     1     0     0
SMALL
abcg2


@<TRIPOS>ATOM
      1 N1          39.2200    39.5940   141.4460 nb         1 ZPU      -0.677000
      2 C4          33.3690    41.8250   143.7570 ca         1 ZPU      -0.118500
      3 C5          34.5070    41.0970   143.4520 ca         1 ZPU      -0.068500
      4 C6          35.5940    41.6970   142.8180 ca         1 ZPU      -0.158600
      5 C7          35.5010    43.0540   142.5050 ca         1 ZPU      -0.068500
      6 C8          34.3610    43.7770   142.8140 ca         1 ZPU      -0.118500
      7 C10         39.0350    40.9020   141.4660 ca         1 ZPU       0.490900
      8 C13         41.4510    39.9410   140.6500 ca         1 ZPU      -0.199000
      9 N           37.8060    41.4280   141.8590 ns         1 ZPU      -0.327900
     10 C           32.3400    45.1180   144.7350 c3         1 ZPU      -0.085100
     11 O           36.8010    39.6690   142.8980 o          1 ZPU      -0.535100
     12 C11         40.0270    41.8120   141.0790 ca         1 ZPU      -0.218000
     13 C12         41.2460    41.3170   140.6640 ca         1 ZPU      -0.045000
     14 C14         40.4040    39.1340   141.0520 ca         1 ZPU       0.373900
     15 C2          31.3540    44.4860   142.5050 c3         1 ZPU      -0.085100
     16 C3          33.2730    43.1780   143.4450 ca         1 ZPU      -0.046300
     17 C9          36.7810    40.8270   142.5350 c          1 ZPU       0.625700
     18 H1          32.5390    41.3300   144.2480 ha         1 ZPU       0.116500
     19 H2          34.5490    40.0470   143.7080 ha         1 ZPU       0.121000
     20 H3          36.3040    43.5920   142.0170 ha         1 ZPU       0.121000
     21 H4          34.3280    44.8290   142.5560 ha         1 ZPU       0.116500
     22 H5          42.3900    39.5110   140.3350 ha         1 ZPU       0.126000
     23 H6          37.7090    42.4110   141.6630 hn         1 ZPU       0.152000
     24 H7          32.8070    44.7590   145.6530 hc         1 ZPU       0.036533
     25 H8          33.0130    45.8460   144.2780 hc         1 ZPU       0.036533
     26 H9          31.4230    45.6420   145.0080 hc         1 ZPU       0.036533
     27 H10         31.3340    43.2910   144.2760 hc         1 ZPU       0.052700
     28 H11         39.8420    42.8790   141.1090 ha         1 ZPU       0.118000
     29 H12         42.0300    41.9970   140.3590 ha         1 ZPU       0.118000
     30 H13         40.5150    38.0560   141.0530 h4         1 ZPU       0.023100
     31 H14         30.4280    45.0070   142.7530 hc         1 ZPU       0.036533
     32 H15         31.9970    45.1900   141.9740 hc         1 ZPU       0.036533
     33 H16         31.1110    43.6720   141.8230 hc         1 ZPU       0.036533
     34 C1          32.0310    43.9690   143.7750 c3         1 ZPU      -0.022400
@<TRIPOS>BOND
     1     1     7 ar  
     2     1    14 ar  
     3     2     3 ar  
     4     2    16 ar  
     5     2    18 1   
     6     3     4 ar  
     7     3    19 1   
     8     4     5 ar  
     9     4    17 1   
    10     5     6 ar  
    11     5    20 1   
    12     6    16 ar  
    13     6    21 1   
    14     7     9 1   
    15     7    12 ar  
    16     8    13 ar  
    17     8    14 ar  
    18     8    22 1   
    19     9    17 1   
    20     9    23 1   
    21    10    24 1   
    22    10    25 1   
    23    10    26 1   
    24    10    34 1   
    25    11    17 2   
    26    12    13 ar  
    27    12    28 1   
    28    13    29 1   
    29    14    30 1   
    30    15    31 1   
    31    15    32 1   
    32    15    33 1   
    33    15    34 1   
    34    16    34 1   
    35    27    34 1   
@<TRIPOS>SUBSTRUCTURE
     1 ZPU         1 TEMP              0 ****  ****    0 ROOT
