@<TRIPOS>MOLECULE
ZPV
   49    51     1     0     0
SMALL
No Charge or Current Charge


@<TRIPOS>ATOM
      1 C1          -3.5710    26.8700   -14.7970 c6         1 ZPV       0.187300
      2 C2          -3.6530    29.2160   -14.0790 c6         1 ZPV       0.187300
      3 C3          -3.8010    29.6950   -15.5420 c6         1 ZPV      -0.066900
      4 C4          -4.4920    28.6180   -16.4150 c6         1 ZPV      -0.020400
      5 C5          -4.6390    29.0600   -17.8790 ca         1 ZPV      -0.071300
      6 C6          -3.5040    29.3420   -18.6700 ca         1 ZPV      -0.104000
      7 C8          -4.9330    29.8730   -20.5680 ca         1 ZPV      -0.115000
      8 C9          -6.0680    29.5950   -19.7890 ca         1 ZPV      -0.112000
      9 C10         -5.9220    29.1900   -18.4510 ca         1 ZPV      -0.104000
     10 C11         -4.0840    27.2000   -11.6200 ca         1 ZPV      -0.278500
     11 C12         -4.7340    28.2550   -10.9530 ca         1 ZPV      -0.059000
     12 C13         -5.9840    28.0470   -10.3470 ca         1 ZPV      -0.072000
     13 C14         -6.6210    26.7820   -10.3840 ca         1 ZPV      -0.115600
     14 C15         -7.9740    26.6360    -9.7060 c          1 ZPV       0.612700
     15 C16         -9.8910    25.0860    -9.1020 c3         1 ZPV      -0.058000
     16 C17        -10.3850    23.6640    -9.4790 c          1 ZPV       0.715000
     17 C18         -5.9530    25.7240   -11.0560 ca         1 ZPV       0.183000
     18 C19         -4.7030    25.9330   -11.6620 ca         1 ZPV      -0.086000
     19 O1         -11.4900    23.5520    -9.9900 o          1 ZPV      -0.721000
     20 O2          -8.5190    27.5850    -9.1540 o          1 ZPV      -0.603100
     21 O3          -1.7730    26.1830   -12.5380 o          1 ZPV      -0.544000
     22 O4          -1.8110    28.6250   -11.8080 o          1 ZPV      -0.544000
     23 F           -6.4840    24.4840   -11.1450 f          1 ZPV      -0.151000
     24 N1          -8.5840    25.3990    -9.7230 ns         1 ZPV      -0.441900
     25 O           -9.6280    22.7200    -9.2960 o          1 ZPV      -0.721000
     26 N           -2.9040    27.9330   -13.9970 n3         1 ZPV      -0.714500
     27 C           -3.7170    27.2830   -16.2810 c6         1 ZPV      -0.066900
     28 C7          -3.6510    29.7460   -20.0080 ca         1 ZPV      -0.112000
     29 H1          -4.5680    26.6470   -14.3890 h1         1 ZPV       0.059950
     30 H2          -2.9940    25.9340   -14.7630 h1         1 ZPV       0.059950
     31 H3          -3.1370    30.0070   -13.5150 h1         1 ZPV       0.059950
     32 H4          -4.6550    29.1080   -13.6370 h1         1 ZPV       0.059950
     33 H5          -2.8070    29.9330   -15.9430 hc         1 ZPV       0.052950
     34 H6          -4.3820    30.6270   -15.5680 hc         1 ZPV       0.052950
     35 H7          -5.4980    28.4560   -16.0010 hc         1 ZPV       0.056700
     36 H8          -2.5060    29.2490   -18.2500 ha         1 ZPV       0.114500
     37 H9          -5.0460    30.1860   -21.6040 ha         1 ZPV       0.108000
     38 H10         -7.0610    29.6920   -20.2220 ha         1 ZPV       0.109000
     39 H11         -6.8100    28.9780   -17.8590 ha         1 ZPV       0.114500
     40 H12         -4.2760    29.2420   -10.9020 ha         1 ZPV       0.128000
     41 H13         -6.4590    28.8850    -9.8410 ha         1 ZPV       0.137000
     42 H14        -10.6340    25.8230    -9.4330 h1         1 ZPV       0.035700
     43 H15         -9.7960    25.1440    -8.0110 h1         1 ZPV       0.035700
     44 H16         -4.2180    25.1010   -12.1690 ha         1 ZPV       0.145000
     45 H18         -8.0800    24.6470   -10.1800 hn         1 ZPV       0.298500
     46 H19         -4.2380    26.4900   -16.8340 hc         1 ZPV       0.052950
     47 H20         -2.7180    27.3730   -16.7270 hc         1 ZPV       0.052950
     48 H21         -2.7710    29.9610   -20.6100 ha         1 ZPV       0.109000
     49 S           -2.4780    27.4650   -12.4110 sy         1 ZPV       1.153600
@<TRIPOS>BOND
     1     1    26 1   
     2     1    27 1   
     3     1    29 1   
     4     1    30 1   
     5     2     3 1   
     6     2    26 1   
     7     2    31 1   
     8     2    32 1   
     9     3     4 1   
    10     3    33 1   
    11     3    34 1   
    12     4     5 1   
    13     4    27 1   
    14     4    35 1   
    15     5     6 ar  
    16     5     9 ar  
    17     6    28 ar  
    18     6    36 1   
    19     7     8 ar  
    20     7    28 ar  
    21     7    37 1   
    22     8     9 ar  
    23     8    38 1   
    24     9    39 1   
    25    10    11 ar  
    26    10    18 ar  
    27    10    49 1   
    28    11    12 ar  
    29    11    40 1   
    30    12    13 ar  
    31    12    41 1   
    32    13    14 1   
    33    13    17 ar  
    34    14    20 2   
    35    14    24 1   
    36    15    16 1   
    37    15    24 1   
    38    15    42 1   
    39    15    43 1   
    40    16    19 1   
    41    16    25 1   
    42    17    18 ar  
    43    17    23 1   
    44    18    44 1   
    45    21    49 2   
    46    22    49 2   
    47    24    45 1   
    48    26    49 1   
    49    27    46 1   
    50    27    47 1   
    51    28    48 1   
@<TRIPOS>SUBSTRUCTURE
     1 ZPV         1 TEMP              0 ****  ****    0 ROOT
