@<TRIPOS>MOLECULE
ZPV
   49    51     1     0     0
SMALL
abcg2


@<TRIPOS>ATOM
      1 C1          -3.7180    26.9010   -14.8410 c6         1 ZPV       0.187300
      2 C2          -3.8500    29.2370   -14.1110 c6         1 ZPV       0.187300
      3 C3          -3.8600    29.7040   -15.5590 c6         1 ZPV      -0.066900
      4 C4          -4.4870    28.6500   -16.4710 c6         1 ZPV      -0.020400
      5 C5          -4.5640    29.0730   -17.9150 ca         1 ZPV      -0.071300
      6 C6          -3.4210    29.4240   -18.6340 ca         1 ZPV      -0.104000
      7 C8          -4.7360    29.8030   -20.6170 ca         1 ZPV      -0.115000
      8 C9          -5.8800    29.4560   -19.9120 ca         1 ZPV      -0.112000
      9 C10         -5.7910    29.0950   -18.5730 ca         1 ZPV      -0.104000
     10 C11         -4.2110    27.1400   -11.6320 ca         1 ZPV      -0.278500
     11 C12         -4.8950    28.1630   -10.9880 ca         1 ZPV      -0.059000
     12 C13         -6.1270    27.8910   -10.4210 ca         1 ZPV      -0.072000
     13 C14         -6.6780    26.6120   -10.4550 ca         1 ZPV      -0.115600
     14 C15         -8.0440    26.4150    -9.8570 c          1 ZPV       0.612700
     15 C16         -9.5200    24.9230    -8.6310 c3         1 ZPV      -0.058000
     16 C17        -10.4780    24.3610    -9.7150 c          1 ZPV       0.715000
     17 C18         -5.9590    25.6230   -11.1100 ca         1 ZPV       0.183000
     18 C19         -4.7330    25.8580   -11.7010 ca         1 ZPV      -0.086000
     19 O1         -11.6040    24.0520    -9.2830 o          1 ZPV      -0.721000
     20 O2          -8.8950    27.2790   -10.0140 o          1 ZPV      -0.603100
     21 O3          -1.9410    26.2570   -12.6020 o          1 ZPV      -0.544000
     22 O4          -2.0720    28.6390   -11.8310 o          1 ZPV      -0.544000
     23 F           -6.4580    24.3850   -11.1960 f          1 ZPV      -0.151000
     24 N1          -8.2220    25.3180    -9.1180 ns         1 ZPV      -0.441900
     25 O          -10.0460    24.2650   -10.8750 o          1 ZPV      -0.721000
     26 N           -3.1400    27.9570   -14.0010 n3         1 ZPV      -0.714500
     27 C           -3.7220    27.3390   -16.2960 c6         1 ZPV      -0.066900
     28 C7          -3.5060    29.7870   -19.9710 ca         1 ZPV      -0.112000
     29 H1          -4.7470    26.6810   -14.5270 h1         1 ZPV       0.059950
     30 H2          -3.1310    25.9910   -14.7370 h1         1 ZPV       0.059950
     31 H3          -3.3530    29.9800   -13.4920 h1         1 ZPV       0.059950
     32 H4          -4.8840    29.1350   -13.7530 h1         1 ZPV       0.059950
     33 H5          -2.8370    29.9200   -15.8770 hc         1 ZPV       0.052950
     34 H6          -4.4230    30.6380   -15.6100 hc         1 ZPV       0.052950
     35 H7          -5.5130    28.4810   -16.1210 hc         1 ZPV       0.056700
     36 H8          -2.4510    29.4140   -18.1510 ha         1 ZPV       0.114500
     37 H9          -4.8020    30.0830   -21.6600 ha         1 ZPV       0.108000
     38 H10         -6.8450    29.4630   -20.4030 ha         1 ZPV       0.109000
     39 H11         -6.6890    28.8240   -18.0310 ha         1 ZPV       0.114500
     40 H12         -4.4840    29.1610   -10.9270 ha         1 ZPV       0.128000
     41 H13         -6.6710    28.6860    -9.9300 ha         1 ZPV       0.137000
     42 H14        -10.0000    25.7650    -8.1300 h1         1 ZPV       0.035700
     43 H15         -9.3620    24.1600    -7.8670 h1         1 ZPV       0.035700
     44 H16         -4.2130    25.0500   -12.1990 ha         1 ZPV       0.145000
     45 H18         -7.4740    24.6500    -9.0390 hn         1 ZPV       0.298500
     46 H19         -4.1810    26.5460   -16.8890 hc         1 ZPV       0.052950
     47 H20         -2.6930    27.4540   -16.6480 hc         1 ZPV       0.052950
     48 H21         -2.6070    30.0570   -20.5120 ha         1 ZPV       0.109000
     49 S           -2.6890    27.4950   -12.4780 sy         1 ZPV       1.153600
@<TRIPOS>BOND
     1     1    26 1   
     2     1    27 1   
     3     1    29 1   
     4     1    30 1   
     5     2     3 1   
     6     2    26 1   
     7     2    31 1   
     8     2    32 1   
     9     3     4 1   
    10     3    33 1   
    11     3    34 1   
    12     4     5 1   
    13     4    27 1   
    14     4    35 1   
    15     5     6 ar  
    16     5     9 ar  
    17     6    28 ar  
    18     6    36 1   
    19     7     8 ar  
    20     7    28 ar  
    21     7    37 1   
    22     8     9 ar  
    23     8    38 1   
    24     9    39 1   
    25    10    11 ar  
    26    10    18 ar  
    27    10    49 1   
    28    11    12 ar  
    29    11    40 1   
    30    12    13 ar  
    31    12    41 1   
    32    13    14 1   
    33    13    17 ar  
    34    14    20 2   
    35    14    24 1   
    36    15    16 1   
    37    15    24 1   
    38    15    42 1   
    39    15    43 1   
    40    16    19 1   
    41    16    25 1   
    42    17    18 ar  
    43    17    23 1   
    44    18    44 1   
    45    21    49 2   
    46    22    49 2   
    47    24    45 1   
    48    26    49 1   
    49    27    46 1   
    50    27    47 1   
    51    28    48 1   
@<TRIPOS>SUBSTRUCTURE
     1 ZPV         1 TEMP              0 ****  ****    0 ROOT
