@<TRIPOS>MOLECULE
ZPX
   77    80     1     0     0
SMALL
No Charge or Current Charge


@<TRIPOS>ATOM
      1 CAA         -2.5010    -4.1370    -2.4930 c3         1 ZPX      -0.100100
      2 CAB          5.9400    -1.4960    -0.4780 c3         1 ZPX       0.184100
      3 CAC          4.7680    -1.9840     3.0060 c3         1 ZPX      -0.378100
      4 OAD          0.3840    -4.5280    -0.8560 o          1 ZPX      -0.582100
      5 OAE          2.2530     2.3270     0.5250 o          1 ZPX      -0.583100
      6 OAF          6.6970    -3.2130     1.6810 o          1 ZPX      -0.524000
      7 OAG          4.3720    -4.2400     1.6840 o          1 ZPX      -0.524000
      8 OAH         -2.4930     2.3420    -1.0750 oh         1 ZPX      -0.640000
      9 FAI         -6.9930    -1.0820     0.9900 f          1 ZPX      -0.174000
     10 CAJ          4.1700     4.2630    -2.9240 ca         1 ZPX      -0.108000
     11 CAK          3.3750     3.2430    -3.4740 ca         1 ZPX      -0.106500
     12 CAL          3.6010     5.1930    -2.0380 ca         1 ZPX      -0.106500
     13 CAM         -5.4150     1.8930     2.2020 cc         1 ZPX      -0.225000
     14 CAN         -5.3160     3.2850     2.3120 cc         1 ZPX       0.243900
     15 CAO          2.0130     3.1540    -3.1400 ca         1 ZPX      -0.103000
     16 CAP          2.2390     5.1040    -1.7020 ca         1 ZPX      -0.103000
     17 CAQ         -5.4730    -2.9130     1.0990 ca         1 ZPX      -0.154500
     18 CAR         -5.1890    -1.1610    -0.5640 ca         1 ZPX      -0.154500
     19 CAS         -4.3340    -3.5720     0.6030 ca         1 ZPX      -0.075000
     20 CAT         -4.0500    -1.8180    -1.0630 ca         1 ZPX      -0.075000
     21 CAU         -4.1930     1.4390     1.8120 cd         1 ZPX      -0.178000
     22 CAV          0.8340    -0.9140    -0.3800 ca         1 ZPX      -0.065000
     23 CAW          2.4920    -2.6880    -0.2430 ca         1 ZPX       0.002000
     24 CAX          3.1570    -0.3820     0.1070 ca         1 ZPX      -0.063000
     25 CAY         -0.0390     3.9820    -1.8770 c3         1 ZPX      -0.046100
     26 CAZ         -2.0000     2.6610     1.3000 c3         1 ZPX       0.052600
     27 NBA         -4.1200     3.7530     2.0180 nd         1 ZPX      -0.526800
     28 NBB         -1.2030    -2.9060    -0.7760 ns         1 ZPX      -0.506900
     29 NBC          0.2930     1.9020    -0.5510 ns         1 ZPX      -0.507900
     30 CBD          0.1000    -3.3470    -0.7110 c          1 ZPX       0.614700
     31 CBE          1.5070     1.5260    -0.0190 c          1 ZPX       0.615700
     32 CBF         -5.8980    -1.7110     0.5140 ca         1 ZPX       0.179000
     33 CBG          1.4370     4.0840    -2.2500 ca         1 ZPX      -0.088300
     34 CBH          1.1520    -2.2910    -0.4440 ca         1 ZPX      -0.150600
     35 CBI          1.8320     0.0510    -0.1080 ca         1 ZPX      -0.156600
     36 CBJ         -3.6160    -3.0320    -0.4840 ca         1 ZPX      -0.131300
     37 CBK          3.4970    -1.7450     0.0410 ca         1 ZPX       0.216000
     38 CBL         -2.3720    -3.7470    -1.0070 c3         1 ZPX       0.171000
     39 CBM         -1.7900     3.1910    -0.1420 c3         1 ZPX       0.145300
     40 CBN         -0.2820     3.2550    -0.5270 c3         1 ZPX       0.069700
     41 NBO          4.8320    -2.1490     0.2470 nh         1 ZPX      -0.744300
     42 NBP         -3.4130     2.5970     1.7060 na         1 ZPX       0.132800
     43 SBQ          5.2390    -3.0580     1.6640 s6         1 ZPX       1.199100
     44 HAA         -1.6330    -4.7210    -2.8180 hc         1 ZPX       0.049700
     45 HAAA        -3.3980    -4.7480    -2.6490 hc         1 ZPX       0.049700
     46 HAAB        -2.5740    -3.2490    -3.1320 hc         1 ZPX       0.049700
     47 HAB          6.4550    -0.7710     0.1670 h1         1 ZPX       0.056700
     48 HABA         6.6670    -2.2410    -0.8270 h1         1 ZPX       0.056700
     49 HABB         5.5630    -0.9640    -1.3620 h1         1 ZPX       0.056700
     50 HAC          5.3330    -1.0540     2.8940 h1         1 ZPX       0.104033
     51 HACA         3.6910    -1.8090     2.9270 h1         1 ZPX       0.104033
     52 HACB         5.0220    -2.4960     3.9390 h1         1 ZPX       0.104033
     53 HAJ          5.2240     4.3310    -3.1820 ha         1 ZPX       0.114000
     54 HAK          3.8150     2.5210    -4.1590 ha         1 ZPX       0.114500
     55 HAL          4.2150     5.9820    -1.6100 ha         1 ZPX       0.114500
     56 HAM         -6.3090     1.3090     2.3970 ha         1 ZPX       0.150000
     57 HAN         -6.0950     3.9790     2.6010 h4         1 ZPX       0.038100
     58 HAO          1.4060     2.3590    -3.5670 ha         1 ZPX       0.109000
     59 HAP          1.8070     5.8250    -1.0120 ha         1 ZPX       0.109000
     60 HAQ         -6.0270    -3.3310     1.9360 ha         1 ZPX       0.139500
     61 HAR         -5.5220    -0.2270    -1.0100 ha         1 ZPX       0.139500
     62 HAS         -4.0110    -4.5020     1.0660 ha         1 ZPX       0.121500
     63 HAT         -3.5050    -1.3790    -1.8960 ha         1 ZPX       0.121500
     64 HAU         -3.8230     0.4410     1.6080 h4         1 ZPX       0.146000
     65 HAV         -0.1920    -0.5910    -0.5250 ha         1 ZPX       0.113000
     66 HAW          2.7620    -3.7380    -0.3080 ha         1 ZPX       0.165000
     67 HAX          3.9340     0.3450     0.3300 ha         1 ZPX       0.139000
     68 HAY         -0.4740     4.9870    -1.8210 hc         1 ZPX       0.063700
     69 HAYA        -0.5880     3.4620    -2.6710 hc         1 ZPX       0.063700
     70 HAZ         -1.5690     1.6560     1.3910 h1         1 ZPX       0.071700
     71 HAZA        -1.4690     3.3120     2.0050 h1         1 ZPX       0.071700
     72 HNBB        -1.3620    -1.9230    -0.6130 hn         1 ZPX       0.312500
     73 HNBC        -0.2500     1.1810    -1.0070 hn         1 ZPX       0.312500
     74 HBL         -2.2380    -4.6730    -0.4300 h1         1 ZPX       0.064700
     75 HBM         -2.1930     4.2140    -0.1810 h1         1 ZPX       0.103700
     76 HBN          0.2310     3.8370     0.2520 h1         1 ZPX       0.092700
     77 HOAH        -3.4510     2.4210    -0.8750 ho         1 ZPX       0.434000
@<TRIPOS>BOND
     1     1    38 1   
     2     1    44 1   
     3     1    45 1   
     4     1    46 1   
     5     2    41 1   
     6     2    47 1   
     7     2    48 1   
     8     2    49 1   
     9     3    43 1   
    10     3    50 1   
    11     3    51 1   
    12     3    52 1   
    13     4    30 2   
    14     5    31 2   
    15     6    43 2   
    16     7    43 2   
    17     8    39 1   
    18     8    77 1   
    19     9    32 1   
    20    10    11 ar  
    21    10    12 ar  
    22    10    53 1   
    23    11    15 ar  
    24    11    54 1   
    25    12    16 ar  
    26    12    55 1   
    27    13    14 1   
    28    13    21 2   
    29    13    56 1   
    30    14    27 2   
    31    14    57 1   
    32    15    33 ar  
    33    15    58 1   
    34    16    33 ar  
    35    16    59 1   
    36    17    19 ar  
    37    17    32 ar  
    38    17    60 1   
    39    18    20 ar  
    40    18    32 ar  
    41    18    61 1   
    42    19    36 ar  
    43    19    62 1   
    44    20    36 ar  
    45    20    63 1   
    46    21    42 1   
    47    21    64 1   
    48    22    34 ar  
    49    22    35 ar  
    50    22    65 1   
    51    23    34 ar  
    52    23    37 ar  
    53    23    66 1   
    54    24    35 ar  
    55    24    37 ar  
    56    24    67 1   
    57    25    33 1   
    58    25    40 1   
    59    25    68 1   
    60    25    69 1   
    61    26    39 1   
    62    26    42 1   
    63    26    70 1   
    64    26    71 1   
    65    27    42 1   
    66    28    30 1   
    67    28    38 1   
    68    28    72 1   
    69    29    31 1   
    70    29    40 1   
    71    29    73 1   
    72    30    34 1   
    73    31    35 1   
    74    36    38 1   
    75    37    41 1   
    76    38    74 1   
    77    39    40 1   
    78    39    75 1   
    79    40    76 1   
    80    41    43 1   
@<TRIPOS>SUBSTRUCTURE
     1 ZPX         1 TEMP              0 ****  ****    0 ROOT
