@<TRIPOS>MOLECULE
ZPX
   77    80     1     0     0
SMALL
bcc


@<TRIPOS>ATOM
      1 CAA         -2.6610    -3.9750    -2.5130 c3         1 ZPX      -0.100100
      2 CAB          5.6870    -1.3350    -0.4840 c3         1 ZPX       0.184100
      3 CAC          4.9870    -1.6080     2.7880 c3         1 ZPX      -0.267300
      4 OAD          0.3230    -4.3070    -1.5630 o          1 ZPX      -0.582100
      5 OAE          1.8430     2.1140     1.0050 o          1 ZPX      -0.583100
      6 OAF          6.3110    -3.4430     1.4480 o          1 ZPX      -0.594800
      7 OAG          3.8580    -3.7840     1.8580 o          1 ZPX      -0.594800
      8 OAH         -2.4810     2.5990    -1.1630 oh         1 ZPX      -0.577800
      9 FAI         -6.8720    -1.5180     1.5550 f          1 ZPX      -0.138900
     10 CAJ          4.3340     4.0010    -2.5850 ca         1 ZPX      -0.126000
     11 CAK          3.5140     3.0690    -3.2050 ca         1 ZPX      -0.124500
     12 CAL          3.7730     4.9590    -1.7490 ca         1 ZPX      -0.124500
     13 CAM         -5.3810     1.9630     1.8100 cc         1 ZPX      -0.308300
     14 CAN         -5.3320     3.3660     1.8380 cc         1 ZPX       0.309200
     15 CAO          2.1420     3.0980    -2.9920 ca         1 ZPX      -0.121000
     16 CAP          2.4030     4.9790    -1.5340 ca         1 ZPX      -0.121000
     17 CAQ         -5.3840    -3.3220     1.3420 ca         1 ZPX      -0.172500
     18 CAR         -5.2000    -1.3810    -0.0850 ca         1 ZPX      -0.172500
     19 CAS         -4.2860    -3.8820     0.7010 ca         1 ZPX      -0.093000
     20 CAT         -4.1080    -1.9580    -0.7130 ca         1 ZPX      -0.093000
     21 CAU         -4.0760     1.5890     1.5910 cd         1 ZPX      -0.145300
     22 CAV          0.6690    -0.8960    -0.4680 ca         1 ZPX      -0.083000
     23 CAW          2.3210    -2.6360    -0.4480 ca         1 ZPX      -0.016000
     24 CAX          2.9380    -0.3800     0.1210 ca         1 ZPX      -0.081000
     25 CAY          0.0940     4.0450    -1.8670 c3         1 ZPX      -0.046100
     26 CAZ         -1.9510     2.8320     1.2000 c3         1 ZPX       0.023300
     27 NBA         -4.1020     3.8100     1.6530 nd         1 ZPX      -0.526800
     28 NBB         -1.2870    -2.9580    -0.7200 ns         1 ZPX      -0.573900
     29 NBC          0.2680     1.9430    -0.6210 ns         1 ZPX      -0.574900
     30 CBD         -0.0120    -3.2700    -1.0140 c          1 ZPX       0.681700
     31 CBE          1.2750     1.4670     0.1440 c          1 ZPX       0.682700
     32 CBF         -5.8180    -2.0760     0.9370 ca         1 ZPX       0.143900
     33 CBG          1.5690     4.0500    -2.1530 ca         1 ZPX      -0.088300
     34 CBH          1.0030    -2.2370    -0.6240 ca         1 ZPX      -0.150600
     35 CBI          1.6310     0.0360    -0.1040 ca         1 ZPX      -0.156600
     36 CBJ         -3.6360    -3.2130    -0.3300 ca         1 ZPX      -0.131300
     37 CBK          3.2850    -1.7110    -0.0650 ca         1 ZPX       0.077600
     38 CBL         -2.4310    -3.8180    -1.0120 c3         1 ZPX       0.171000
     39 CBM         -1.7170     3.3200    -0.2300 c3         1 ZPX       0.122100
     40 CBN         -0.2180     3.3070    -0.5600 c3         1 ZPX       0.069700
     41 NBO          4.6270    -2.1460     0.1130 nh         1 ZPX      -0.605900
     42 NBP         -3.3530     2.7210     1.5140 na         1 ZPX       0.111400
     43 SBQ          4.9690    -2.8970     1.5630 s6         1 ZPX       1.229900
     44 HAA         -1.8020    -4.4310    -3.0010 hc         1 ZPX       0.049700
     45 HAAA        -3.5250    -4.6180    -2.6840 hc         1 ZPX       0.049700
     46 HAAB        -2.8540    -3.0120    -2.9860 hc         1 ZPX       0.049700
     47 HAB          5.9150    -0.4230     0.0730 h1         1 ZPX       0.056700
     48 HABA         6.5940    -1.9240    -0.5780 h1         1 ZPX       0.056700
     49 HABB         5.3660    -1.0540    -1.4840 h1         1 ZPX       0.056700
     50 HAC          5.7800    -0.8970     2.5670 h1         1 ZPX       0.104033
     51 HACA         4.0210    -1.1090     2.8050 h1         1 ZPX       0.104033
     52 HACB         5.1750    -2.0740     3.7530 h1         1 ZPX       0.104033
     53 HAJ          5.4030     3.9840    -2.7540 ha         1 ZPX       0.132000
     54 HAK          3.9420     2.3200    -3.8600 ha         1 ZPX       0.132500
     55 HAL          4.4050     5.6930    -1.2650 ha         1 ZPX       0.132500
     56 HAM         -6.2350     1.3190     1.9360 ha         1 ZPX       0.168000
     57 HAN         -6.1430     4.0620     1.9940 h4         1 ZPX       0.038100
     58 HAO          1.5080     2.3740    -3.4910 ha         1 ZPX       0.127000
     59 HAP          1.9720     5.7280    -0.8790 ha         1 ZPX       0.127000
     60 HAQ         -5.8880    -3.8480     2.1430 ha         1 ZPX       0.157500
     61 HAR         -5.5640    -0.4070    -0.3870 ha         1 ZPX       0.157500
     62 HAS         -3.9340    -4.8570     1.0150 ha         1 ZPX       0.139500
     63 HAT         -3.6290    -1.4160    -1.5200 ha         1 ZPX       0.139500
     64 HAU         -3.6190     0.6160     1.5080 h4         1 ZPX       0.164000
     65 HAV         -0.3490    -0.5700    -0.6310 ha         1 ZPX       0.131000
     66 HAW          2.6030    -3.6670    -0.6110 ha         1 ZPX       0.183000
     67 HAX          3.6830     0.3430     0.4310 ha         1 ZPX       0.157000
     68 HAY         -0.2770     5.0690    -1.7740 hc         1 ZPX       0.063700
     69 HAYA        -0.4540     3.5820    -2.6910 hc         1 ZPX       0.063700
     70 HAZ         -1.5100     1.8450     1.3580 h1         1 ZPX       0.071700
     71 HAZA        -1.4780     3.5150     1.9060 h1         1 ZPX       0.071700
     72 HNBB        -1.4470    -2.2260    -0.0480 hn         1 ZPX       0.312500
     73 HNBC         0.0470     1.4290    -1.4610 hn         1 ZPX       0.312500
     74 HBL         -2.2500    -4.8090    -0.5830 h1         1 ZPX       0.064700
     75 HBM         -2.0630     4.3550    -0.3000 h1         1 ZPX       0.103700
     76 HBN          0.3110     3.8080     0.2530 h1         1 ZPX       0.092700
     77 HOAH        -2.2830     1.6600    -1.0870 ho         1 ZPX       0.395000
@<TRIPOS>BOND
     1     1    38 1   
     2     1    44 1   
     3     1    45 1   
     4     1    46 1   
     5     2    41 1   
     6     2    47 1   
     7     2    48 1   
     8     2    49 1   
     9     3    43 1   
    10     3    50 1   
    11     3    51 1   
    12     3    52 1   
    13     4    30 2   
    14     5    31 2   
    15     6    43 2   
    16     7    43 2   
    17     8    39 1   
    18     8    77 1   
    19     9    32 1   
    20    10    11 ar  
    21    10    12 ar  
    22    10    53 1   
    23    11    15 ar  
    24    11    54 1   
    25    12    16 ar  
    26    12    55 1   
    27    13    14 1   
    28    13    21 2   
    29    13    56 1   
    30    14    27 2   
    31    14    57 1   
    32    15    33 ar  
    33    15    58 1   
    34    16    33 ar  
    35    16    59 1   
    36    17    19 ar  
    37    17    32 ar  
    38    17    60 1   
    39    18    20 ar  
    40    18    32 ar  
    41    18    61 1   
    42    19    36 ar  
    43    19    62 1   
    44    20    36 ar  
    45    20    63 1   
    46    21    42 1   
    47    21    64 1   
    48    22    34 ar  
    49    22    35 ar  
    50    22    65 1   
    51    23    34 ar  
    52    23    37 ar  
    53    23    66 1   
    54    24    35 ar  
    55    24    37 ar  
    56    24    67 1   
    57    25    33 1   
    58    25    40 1   
    59    25    68 1   
    60    25    69 1   
    61    26    39 1   
    62    26    42 1   
    63    26    70 1   
    64    26    71 1   
    65    27    42 1   
    66    28    30 1   
    67    28    38 1   
    68    28    72 1   
    69    29    31 1   
    70    29    40 1   
    71    29    73 1   
    72    30    34 1   
    73    31    35 1   
    74    36    38 1   
    75    37    41 1   
    76    38    74 1   
    77    39    40 1   
    78    39    75 1   
    79    40    76 1   
    80    41    43 1   
@<TRIPOS>SUBSTRUCTURE
     1 ZPX         1 TEMP              0 ****  ****    0 ROOT
