@<TRIPOS>MOLECULE
ZPY
   86    89     1     0     0
SMALL
No Charge or Current Charge


@<TRIPOS>ATOM
      1 CAA          9.0680     5.0950    -4.3530 c3         1 ZPY      -0.097100
      2 CAB         -3.0840    -4.7610     3.4990 c3         1 ZPY      -0.105100
      3 CAC         -5.5460     0.9100    -3.0080 c3         1 ZPY       0.186100
      4 CAD         -2.8270    -0.6870    -4.9450 c3         1 ZPY      -0.378100
      5 OAE         -3.7060    -4.1730     0.2840 o          1 ZPY      -0.570100
      6 OAF         -1.2000     2.5860    -0.5260 o          1 ZPY      -0.573100
      7 OAG          6.3490     1.8960    -3.8110 o          1 ZPY      -0.513000
      8 OAH         -5.4310    -0.6550    -5.4010 o          1 ZPY      -0.521000
      9 OAI         -4.4450    -2.5960    -4.0890 o          1 ZPY      -0.521000
     10 OAJ          2.7890     1.0640     0.5870 oh         1 ZPY      -0.641000
     11 CAL         -2.7550     1.1380     5.0790 ca         1 ZPY      -0.109000
     12 CAM         -1.8490     0.0790     4.9070 ca         1 ZPY      -0.106500
     13 CAN         -2.4410     2.4160     4.5860 ca         1 ZPY      -0.106500
     14 CAO         -0.6300     0.2960     4.2400 ca         1 ZPY      -0.102500
     15 CAP         -1.2230     2.6330     3.9200 ca         1 ZPY      -0.102500
     16 CAQ          1.6780    -5.6300     3.3250 ca         1 ZPY      -0.154000
     17 CAR          1.0490    -3.7510     4.7370 ca         1 ZPY      -0.154000
     18 CAS          0.4040    -5.6120     2.7310 ca         1 ZPY      -0.069000
     19 CAT         -0.2260    -3.7320     4.1450 ca         1 ZPY      -0.069000
     20 CAU          4.8380     4.6100    -1.8760 cc         1 ZPY       0.303900
     21 CAV         -2.0230    -0.9020     0.2730 ca         1 ZPY      -0.066000
     22 CAW         -3.7970    -1.7250    -1.1760 ca         1 ZPY      -0.003000
     23 CAX         -2.9320     0.5180    -1.4820 ca         1 ZPY      -0.067000
     24 CAY          4.0210     2.5590    -2.1130 cd         1 ZPY      -0.099000
     25 CAZ          8.2550     3.7910    -4.3100 c3         1 ZPY       0.168600
     26 CBA          1.0030     1.8100     2.9970 c3         1 ZPY      -0.048100
     27 CBB          1.9510     2.9890    -0.6650 c3         1 ZPY       0.047600
     28 NBC          3.7290     4.6600    -1.1620 nd         1 ZPY      -0.528800
     29 NBD         -2.0650    -3.4370     1.6660 ns         1 ZPY      -0.509900
     30 NBE         -0.1050     1.1770     0.8790 ns         1 ZPY      -0.502900
     31 OBF          7.0930     4.0350    -3.4990 os         1 ZPY      -0.443100
     32 CBH         -1.0890     1.4680    -0.0440 c          1 ZPY       0.612700
     33 CBI          6.2060     3.0070    -3.3170 c          1 ZPY       0.651700
     34 CBJ          1.9960    -4.7000     4.3260 ca         1 ZPY       0.179000
     35 CBK         -0.3100     1.5750     3.7410 ca         1 ZPY      -0.088300
     36 CBL          5.0610     3.3650    -2.4700 cc         1 ZPY      -0.272600
     37 CBM         -2.9110    -1.9420    -0.0990 ca         1 ZPY      -0.147600
     38 CBN         -2.0230     0.3350    -0.4170 ca         1 ZPY      -0.156600
     39 CBO         -0.5590    -4.6650     3.1390 ca         1 ZPY      -0.125300
     40 CBP         -3.8120    -0.5050    -1.8750 ca         1 ZPY       0.221000
     41 CBQ         -1.9350    -4.6440     2.4770 c3         1 ZPY       0.169000
     42 CBR          2.1380     2.3420     0.7290 c3         1 ZPY       0.152300
     43 CBS          0.7930     2.1670     1.5030 c3         1 ZPY       0.062700
     44 NBT         -4.6990    -0.2970    -2.9500 nh         1 ZPY      -0.749300
     45 NBU          3.2170     3.3750    -1.3080 na         1 ZPY       0.138800
     46 SBV         -4.4630    -1.1700    -4.4270 s6         1 ZPY       1.198100
     47 HAA          9.3680     5.3960    -3.3430 hc         1 ZPY       0.046367
     48 HAAA         9.9740     4.9570    -4.9550 hc         1 ZPY       0.046367
     49 HAAB         8.4780     5.9030    -4.8000 hc         1 ZPY       0.046367
     50 HAB         -2.9510    -5.6540     4.1210 hc         1 ZPY       0.046033
     51 HABA        -3.1250    -3.8850     4.1560 hc         1 ZPY       0.046033
     52 HABB        -4.0500    -4.8470     2.9880 hc         1 ZPY       0.046033
     53 HAC         -5.1150     1.6570    -3.6890 h1         1 ZPY       0.054700
     54 HACA        -6.5580     0.6570    -3.3530 h1         1 ZPY       0.054700
     55 HACB        -5.6400     1.3630    -2.0130 h1         1 ZPY       0.054700
     56 HAD         -2.8280     0.4010    -5.0600 h1         1 ZPY       0.104367
     57 HADA        -2.1270    -1.0060    -4.1670 h1         1 ZPY       0.104367
     58 HADB        -2.6220    -1.1900    -5.8950 h1         1 ZPY       0.104367
     59 HOAJ         2.1050     0.4310     0.2780 ho         1 ZPY       0.437000
     60 HAL         -3.6980     0.9710     5.5950 ha         1 ZPY       0.114000
     61 HAM         -2.0910    -0.9090     5.2920 ha         1 ZPY       0.114000
     62 HAN         -3.1410     3.2380     4.7190 ha         1 ZPY       0.114000
     63 HAO          0.0650    -0.5320     4.1120 ha         1 ZPY       0.109500
     64 HAP         -0.9890     3.6260     3.5420 ha         1 ZPY       0.109500
     65 HAR          1.3040    -3.0330     5.5120 ha         1 ZPY       0.142500
     66 HAS          0.1670    -6.3340     1.9520 ha         1 ZPY       0.113500
     67 HAT         -0.9510    -2.9900     4.4690 ha         1 ZPY       0.113500
     68 HAU          5.4570     5.4960    -1.9420 h4         1 ZPY       0.052100
     69 HAV         -1.3440    -1.0500     1.1060 ha         1 ZPY       0.119000
     70 HAW         -4.4960    -2.5030    -1.4710 ha         1 ZPY       0.161000
     71 HAX         -2.9460     1.4580    -2.0260 ha         1 ZPY       0.137000
     72 HAY          3.7920     1.5250    -2.3430 h4         1 ZPY       0.165000
     73 HAZ          7.9680     3.5050    -5.3310 h1         1 ZPY       0.049200
     74 HAZA         8.8710     2.9890    -3.8820 h1         1 ZPY       0.049200
     75 HBA          1.5610     2.6200     3.4830 hc         1 ZPY       0.063700
     76 HBAA         1.6410     0.9200     3.0710 hc         1 ZPY       0.063700
     77 HBB          1.4200     2.2980    -1.3300 h1         1 ZPY       0.078200
     78 HBBA         1.3340     3.8900    -0.5630 h1         1 ZPY       0.078200
     79 HNBD        -1.4550    -2.6620     1.8790 hn         1 ZPY       0.310500
     80 HNBE        -0.1060     0.2400     1.2560 hn         1 ZPY       0.304500
     81 HBQ         -2.0030    -5.5100     1.8030 h1         1 ZPY       0.076700
     82 HBR          2.7720     3.0230     1.3160 h1         1 ZPY       0.104700
     83 HBS          0.2820     3.1400     1.4850 h1         1 ZPY       0.093700
     84 CBG         -2.9450    -3.2760     0.6180 c          1 ZPY       0.612700
     85 HAQ          2.4180    -6.3610     3.0100 ha         1 ZPY       0.142500
     86 FAK          3.2210    -4.7170     4.8950 f          1 ZPY      -0.176000
@<TRIPOS>BOND
     1     1    25 1   
     2     1    47 1   
     3     1    48 1   
     4     1    49 1   
     5     2    41 1   
     6     2    50 1   
     7     2    51 1   
     8     2    52 1   
     9     3    44 1   
    10     3    53 1   
    11     3    54 1   
    12     3    55 1   
    13     4    46 1   
    14     4    56 1   
    15     4    57 1   
    16     4    58 1   
    17     5    84 2   
    18     6    32 2   
    19     7    33 2   
    20     8    46 2   
    21     9    46 2   
    22    10    42 1   
    23    10    59 1   
    24    11    12 ar  
    25    11    13 ar  
    26    11    60 1   
    27    12    14 ar  
    28    12    61 1   
    29    13    15 ar  
    30    13    62 1   
    31    14    35 ar  
    32    14    63 1   
    33    15    35 ar  
    34    15    64 1   
    35    16    18 ar  
    36    16    34 ar  
    37    16    85 1   
    38    17    19 ar  
    39    17    34 ar  
    40    17    65 1   
    41    18    39 ar  
    42    18    66 1   
    43    19    39 ar  
    44    19    67 1   
    45    20    28 2   
    46    20    36 1   
    47    20    68 1   
    48    21    37 ar  
    49    21    38 ar  
    50    21    69 1   
    51    22    37 ar  
    52    22    40 ar  
    53    22    70 1   
    54    23    38 ar  
    55    23    40 ar  
    56    23    71 1   
    57    24    36 2   
    58    24    45 1   
    59    24    72 1   
    60    25    31 1   
    61    25    73 1   
    62    25    74 1   
    63    26    35 1   
    64    26    43 1   
    65    26    75 1   
    66    26    76 1   
    67    27    42 1   
    68    27    45 1   
    69    27    77 1   
    70    27    78 1   
    71    28    45 1   
    72    29    41 1   
    73    29    79 1   
    74    29    84 1   
    75    30    32 1   
    76    30    43 1   
    77    30    80 1   
    78    31    33 1   
    79    32    38 1   
    80    33    36 1   
    81    34    86 1   
    82    37    84 1   
    83    39    41 1   
    84    40    44 1   
    85    41    81 1   
    86    42    43 1   
    87    42    82 1   
    88    43    83 1   
    89    44    46 1   
@<TRIPOS>SUBSTRUCTURE
     1 ZPY         1 TEMP              0 ****  ****    0 ROOT
