@<TRIPOS>MOLECULE
ZPY
   86    89     1     0     0
SMALL
bcc


@<TRIPOS>ATOM
      1 CAA          9.8950     1.3730    -0.2040 c3         1 ZPY      -0.097100
      2 CAB          1.4320    -4.0760     2.6750 c3         1 ZPY      -0.105100
      3 CAC         -6.4900    -0.3860     0.3390 c3         1 ZPY       0.186100
      4 CAD         -6.0650    -0.3680    -2.9860 c3         1 ZPY      -0.267300
      5 OAE         -1.3940    -4.2970    -0.4560 o          1 ZPY      -0.570100
      6 OAF         -2.1090     2.5100    -0.9760 o          1 ZPY      -0.573100
      7 OAG          6.1610    -0.3890    -0.7380 o          1 ZPY      -0.562000
      8 OAH         -7.6110    -2.0880    -1.7360 o          1 ZPY      -0.591800
      9 OAI         -5.3000    -2.8090    -2.4060 o          1 ZPY      -0.591800
     10 OAJ          1.8510     2.3050     1.9560 oh         1 ZPY      -0.578800
     11 CAL         -5.0630     3.6530     2.1080 ca         1 ZPY      -0.127000
     12 CAM         -4.3600     2.6250     2.7220 ca         1 ZPY      -0.124500
     13 CAN         -4.3710     4.7450     1.6000 ca         1 ZPY      -0.124500
     14 CAO         -2.9760     2.6890     2.8190 ca         1 ZPY      -0.120500
     15 CAP         -2.9880     4.8000     1.6920 ca         1 ZPY      -0.120500
     16 CAQ          2.9160    -5.1910    -1.7240 ca         1 ZPY      -0.172000
     17 CAR          3.6200    -3.0070    -0.9650 ca         1 ZPY      -0.172000
     18 CAS          1.9690    -5.2250    -0.7070 ca         1 ZPY      -0.087000
     19 CAT          2.6680    -3.0630     0.0400 ca         1 ZPY      -0.087000
     20 CAU          5.2990     3.1590    -0.2150 cc         1 ZPY       0.369200
     21 CAV         -1.4950    -0.8060     0.0810 ca         1 ZPY      -0.084000
     22 CAW         -3.4160    -2.2360    -0.1330 ca         1 ZPY      -0.021000
     23 CAX         -3.6590     0.1500    -0.3340 ca         1 ZPY      -0.085000
     24 CAY          3.9090     1.4910    -0.5760 cd         1 ZPY      -0.066300
     25 CAZ          8.6800     0.5030    -0.4140 c3         1 ZPY       0.145400
     26 CBA         -0.7670     3.7910     2.3110 c3         1 ZPY      -0.048100
     27 CBB          1.8360     2.8530    -0.4150 c3         1 ZPY       0.018300
     28 NBC          4.0910     3.6750    -0.2130 nd         1 ZPY      -0.528800
     29 NBD         -0.1970    -3.1880     1.1090 ns         1 ZPY      -0.576900
     30 NBE         -0.7400     1.9130     0.7380 ns         1 ZPY      -0.569900
     31 OBF          7.5210     1.3500    -0.3600 os         1 ZPY      -0.419900
     32 CBH         -1.7200     1.6860    -0.1700 c          1 ZPY       0.679700
     33 CBI          6.3320     0.7920    -0.5320 c          1 ZPY       0.700700
     34 CBJ          3.7260    -4.0790    -1.8320 ca         1 ZPY       0.143900
     35 CBK         -2.2710     3.7710     2.2990 ca         1 ZPY      -0.088300
     36 CBL          5.2550     1.7680    -0.4430 cc         1 ZPY      -0.337900
     37 CBM         -2.0520    -2.0800     0.0680 ca         1 ZPY      -0.147600
     38 CBN         -2.2960     0.3090    -0.1230 ca         1 ZPY      -0.156600
     39 CBO          1.8360    -4.1710     0.1870 ca         1 ZPY      -0.125300
     40 CBP         -4.2230    -1.1180    -0.3110 ca         1 ZPY       0.082600
     41 CBQ          0.8060    -4.2240     1.2950 c3         1 ZPY       0.169000
     42 CBR          1.3340     3.1860     0.9920 c3         1 ZPY       0.129100
     43 CBS         -0.1990     3.2340     0.9970 c3         1 ZPY       0.062700
     44 NBT         -5.6300    -1.2850    -0.4310 nh         1 ZPY      -0.610900
     45 NBU          3.2640     2.6510    -0.4400 na         1 ZPY       0.117400
     46 SBV         -6.2020    -1.7810    -1.9160 s6         1 ZPY       1.228900
     47 HAA          9.8690     1.8710     0.7650 hc         1 ZPY       0.046367
     48 HAAA        10.7890     0.7500    -0.2340 hc         1 ZPY       0.046367
     49 HAAB         9.9880     2.1290    -0.9830 hc         1 ZPY       0.046367
     50 HAB          2.1770    -4.8550     2.8320 hc         1 ZPY       0.046033
     51 HABA         1.9310    -3.1120     2.7950 hc         1 ZPY       0.046033
     52 HABB         0.6750    -4.1680     3.4540 hc         1 ZPY       0.046033
     53 HAC         -6.6650     0.5800    -0.1410 h1         1 ZPY       0.054700
     54 HACA        -7.4470    -0.8620     0.5300 h1         1 ZPY       0.054700
     55 HACB        -6.0100    -0.2070     1.2980 h1         1 ZPY       0.054700
     56 HAD         -6.6500     0.4580    -2.5870 h1         1 ZPY       0.104367
     57 HADA        -5.0200    -0.0820    -3.0810 h1         1 ZPY       0.104367
     58 HADB        -6.4560    -0.6540    -3.9610 h1         1 ZPY       0.104367
     59 HOAJ         1.6470     1.3960     1.7100 ho         1 ZPY       0.398000
     60 HAL         -6.1410     3.6060     2.0320 ha         1 ZPY       0.132000
     61 HAM         -4.8880     1.7720     3.1300 ha         1 ZPY       0.132000
     62 HAN         -4.9100     5.5560     1.1270 ha         1 ZPY       0.132000
     63 HAO         -2.4390     1.8830     3.3070 ha         1 ZPY       0.127500
     64 HAP         -2.4570     5.6510     1.2820 ha         1 ZPY       0.127500
     65 HAR          4.2780    -2.1520    -1.0650 ha         1 ZPY       0.160500
     66 HAS          1.3260    -6.0920    -0.6160 ha         1 ZPY       0.131500
     67 HAT          2.5850    -2.2260     0.7230 ha         1 ZPY       0.131500
     68 HAU          6.1630     3.7870    -0.0610 h4         1 ZPY       0.052100
     69 HAV         -0.4240    -0.6890     0.1960 ha         1 ZPY       0.137000
     70 HAW         -3.8580    -3.2220    -0.1180 ha         1 ZPY       0.179000
     71 HAX         -4.2790     1.0240    -0.4910 ha         1 ZPY       0.155000
     72 HAY          3.3940     0.5650    -0.7760 h4         1 ZPY       0.183000
     73 HAZ          8.7210    -0.0020    -1.3810 h1         1 ZPY       0.049200
     74 HAZA         8.6090    -0.2630     0.3620 h1         1 ZPY       0.049200
     75 HBA         -0.3990     4.8110     2.4420 hc         1 ZPY       0.063700
     76 HBAA        -0.3840     3.2050     3.1500 hc         1 ZPY       0.063700
     77 HBB          1.3730     1.9370    -0.7870 h1         1 ZPY       0.078200
     78 HBBA         1.5770     3.6560    -1.1040 h1         1 ZPY       0.078200
     79 HNBD        -0.1790    -2.3910     1.7250 hn         1 ZPY       0.310500
     80 HNBE        -0.6960     1.2640     1.5100 hn         1 ZPY       0.304500
     81 HBQ          0.3030    -5.1920     1.2510 h1         1 ZPY       0.076700
     82 HBR          1.7030     4.1780     1.2650 h1         1 ZPY       0.104700
     83 HBS         -0.5190     3.8810     0.1780 h1         1 ZPY       0.093700
     84 CBG         -1.1920    -3.2950     0.2120 c          1 ZPY       0.679700
     85 HAQ          3.0180    -6.0150    -2.4170 ha         1 ZPY       0.160500
     86 FAK          4.6480    -4.0360    -2.8080 f          1 ZPY      -0.140900
@<TRIPOS>BOND
     1     1    25 1   
     2     1    47 1   
     3     1    48 1   
     4     1    49 1   
     5     2    41 1   
     6     2    50 1   
     7     2    51 1   
     8     2    52 1   
     9     3    44 1   
    10     3    53 1   
    11     3    54 1   
    12     3    55 1   
    13     4    46 1   
    14     4    56 1   
    15     4    57 1   
    16     4    58 1   
    17     5    84 2   
    18     6    32 2   
    19     7    33 2   
    20     8    46 2   
    21     9    46 2   
    22    10    42 1   
    23    10    59 1   
    24    11    12 ar  
    25    11    13 ar  
    26    11    60 1   
    27    12    14 ar  
    28    12    61 1   
    29    13    15 ar  
    30    13    62 1   
    31    14    35 ar  
    32    14    63 1   
    33    15    35 ar  
    34    15    64 1   
    35    16    18 ar  
    36    16    34 ar  
    37    16    85 1   
    38    17    19 ar  
    39    17    34 ar  
    40    17    65 1   
    41    18    39 ar  
    42    18    66 1   
    43    19    39 ar  
    44    19    67 1   
    45    20    28 2   
    46    20    36 1   
    47    20    68 1   
    48    21    37 ar  
    49    21    38 ar  
    50    21    69 1   
    51    22    37 ar  
    52    22    40 ar  
    53    22    70 1   
    54    23    38 ar  
    55    23    40 ar  
    56    23    71 1   
    57    24    36 2   
    58    24    45 1   
    59    24    72 1   
    60    25    31 1   
    61    25    73 1   
    62    25    74 1   
    63    26    35 1   
    64    26    43 1   
    65    26    75 1   
    66    26    76 1   
    67    27    42 1   
    68    27    45 1   
    69    27    77 1   
    70    27    78 1   
    71    28    45 1   
    72    29    41 1   
    73    29    79 1   
    74    29    84 1   
    75    30    32 1   
    76    30    43 1   
    77    30    80 1   
    78    31    33 1   
    79    32    38 1   
    80    33    36 1   
    81    34    86 1   
    82    37    84 1   
    83    39    41 1   
    84    40    44 1   
    85    41    81 1   
    86    42    43 1   
    87    42    82 1   
    88    43    83 1   
    89    44    46 1   
@<TRIPOS>SUBSTRUCTURE
     1 ZPY         1 TEMP              0 ****  ****    0 ROOT
