@<TRIPOS>MOLECULE
ZPZ
   83    86     1     0     0
SMALL
No Charge or Current Charge


@<TRIPOS>ATOM
      1 CAS         -3.3730     3.7600     0.4060 ca         1 ZPZ      -0.079000
      2 CAQ         -4.6500     3.1730     0.3520 ca         1 ZPZ      -0.158000
      3 CBG         -4.9860     2.1420     1.2420 ca         1 ZPZ       0.179000
      4 FAK         -6.2130     1.5790     1.1900 f          1 ZPZ      -0.168000
      5 CAR         -4.0530     1.6930     2.1870 ca         1 ZPZ      -0.158000
      6 CAT         -2.7760     2.2780     2.2440 ca         1 ZPZ      -0.079000
      7 CBK         -2.4270     3.3190     1.3550 ca         1 ZPZ      -0.129300
      8 CBO         -1.0290     3.9320     1.3820 c3         1 ZPZ       0.168000
      9 CAB         -0.6740     4.5340     2.7580 c3         1 ZPZ      -0.103100
     10 NBC         -0.0720     2.9080     0.9820 ns         1 ZPZ      -0.513900
     11 CBE          1.2040     3.1290     0.5120 c          1 ZPZ       0.616700
     12 OAE          1.6680     4.2570     0.4260 o          1 ZPZ      -0.576100
     13 CBI          1.9810     1.8950     0.0950 ca         1 ZPZ      -0.142600
     14 CAU          1.4160     0.6020     0.1660 ca         1 ZPZ      -0.079000
     15 CAV          3.2980     2.0350    -0.3980 ca         1 ZPZ      -0.026000
     16 CBL          4.0550     0.9190    -0.8260 ca         1 ZPZ       0.264000
     17 NBR          5.3860     1.0170    -1.3280 nh         1 ZPZ      -0.786300
     18 CAC          6.3860    -0.0360    -1.0400 c3         1 ZPZ       0.201100
     19 SBT          5.9940     2.4350    -2.1250 s6         1 ZPZ       1.202100
     20 CAD          6.5440     3.5040    -0.8030 c3         1 ZPZ      -0.350100
     21 OAH          7.1660     2.0180    -2.9020 o          1 ZPZ      -0.524500
     22 OAG          4.8580     3.0670    -2.8020 o          1 ZPZ      -0.524500
     23 CAW          3.4480    -0.3530    -0.7600 ca         1 ZPZ      -0.059000
     24 CBJ          2.1410    -0.5310    -0.2610 ca         1 ZPZ      -0.147600
     25 CBF          1.5320    -1.9170    -0.2270 c          1 ZPZ       0.613700
     26 OAF          1.9940    -2.8510    -0.8650 o          1 ZPZ      -0.569100
     27 NBD          0.3900    -2.0450     0.5350 ns         1 ZPZ      -0.503900
     28 CBQ         -0.4500    -3.2440     0.6500 c3         1 ZPZ       0.067700
     29 CAY         -0.1290    -4.0170     1.9560 c3         1 ZPZ      -0.049100
     30 CBH          1.3350    -4.4310     2.0660 ca         1 ZPZ      -0.086300
     31 CAO          2.2400    -3.6560     2.8190 ca         1 ZPZ      -0.102500
     32 CAM          3.5920    -4.0330     2.9090 ca         1 ZPZ      -0.106000
     33 CAL          4.0450    -5.1880     2.2500 ca         1 ZPZ      -0.107000
     34 CAN          3.1470    -5.9650     1.5000 ca         1 ZPZ      -0.106000
     35 CAP          1.7960    -5.5880     1.4080 ca         1 ZPZ      -0.102500
     36 CBP         -1.9560    -2.8520     0.5370 c3         1 ZPZ       0.153300
     37 OAJ         -2.2730    -1.8590     1.5360 oh         1 ZPZ      -0.643000
     38 CAZ         -2.3080    -2.3000    -0.8720 c3         1 ZPZ       0.044600
     39 NBS         -3.7050    -1.8620    -1.0330 na         1 ZPZ       0.123800
     40 CAX         -4.1470    -0.6830    -1.5790 cc         1 ZPZ      -0.185000
     41 NBB         -4.7450    -2.6560    -0.6520 nc         1 ZPZ      -0.203800
     42 NBA         -5.8390    -2.0020    -0.9380 nd         1 ZPZ      -0.356000
     43 CBM         -5.5090    -0.7910    -1.5200 cd         1 ZPZ       0.207300
     44 CBN         -6.5600     0.2030    -1.9990 c3         1 ZPZ       0.159000
     45 CAA         -7.4300    -0.3730    -3.1350 c3         1 ZPZ      -0.121100
     46 OAI         -5.9750     1.4310    -2.4630 oh         1 ZPZ      -0.674000
     47 H1          -3.1190     4.5530    -0.2950 ha         1 ZPZ       0.120000
     48 H2          -5.3780     3.5120    -0.3810 ha         1 ZPZ       0.143500
     49 H3          -4.3190     0.8920     2.8720 ha         1 ZPZ       0.143500
     50 H4          -2.0570     1.9140     2.9750 ha         1 ZPZ       0.120000
     51 H5          -0.9870     4.7430     0.6410 h1         1 ZPZ       0.082700
     52 H6          -1.4290     5.2720     3.0550 hc         1 ZPZ       0.046367
     53 H7          -0.6270     3.7590     3.5310 hc         1 ZPZ       0.046367
     54 H8           0.2970     5.0400     2.7220 hc         1 ZPZ       0.046367
     55 H9          -0.3860     1.9500     1.0100 hn         1 ZPZ       0.310500
     56 H10          0.3980     0.4770     0.5220 ha         1 ZPZ       0.120000
     57 H11          3.7200     3.0300    -0.4440 ha         1 ZPZ       0.139000
     58 H12          6.4790    -0.7210    -1.8930 h1         1 ZPZ       0.051367
     59 H13          7.3730     0.3970    -0.8270 h1         1 ZPZ       0.051367
     60 H14          6.0960    -0.6180    -0.1550 h1         1 ZPZ       0.051367
     61 H15          7.3220     2.9650    -0.2530 h1         1 ZPZ       0.104367
     62 H16          6.9470     4.4100    -1.2660 h1         1 ZPZ       0.104367
     63 H17          5.6980     3.7390    -0.1540 h1         1 ZPZ       0.104367
     64 H18          3.9980    -1.2220    -1.1100 ha         1 ZPZ       0.143000
     65 H19          0.0940    -1.2300     1.0550 hn         1 ZPZ       0.305500
     66 H20         -0.2200    -3.9140    -0.1900 h1         1 ZPZ       0.092700
     67 H21         -0.4070    -3.3990     2.8190 hc         1 ZPZ       0.063200
     68 H22         -0.7680    -4.9070     2.0090 hc         1 ZPZ       0.063200
     69 H23          1.8990    -2.7580     3.3280 ha         1 ZPZ       0.108500
     70 H24          4.2860    -3.4290     3.4890 ha         1 ZPZ       0.113000
     71 H25          5.0910    -5.4800     2.3200 ha         1 ZPZ       0.113000
     72 H26          3.4970    -6.8590     0.9880 ha         1 ZPZ       0.113000
     73 H27          1.1080    -6.1920     0.8210 ha         1 ZPZ       0.108500
     74 H28         -2.5530    -3.7620     0.7000 h1         1 ZPZ       0.103700
     75 H29         -3.2500    -1.7570     1.5450 ho         1 ZPZ       0.440000
     76 H30         -1.6550    -1.4490    -1.1010 h1         1 ZPZ       0.078200
     77 H31         -2.1090    -3.0770    -1.6200 h1         1 ZPZ       0.078200
     78 H32         -3.5000     0.0970    -1.9560 h4         1 ZPZ       0.173000
     79 H33         -7.2200     0.4130    -1.1460 h1         1 ZPZ       0.048700
     80 H34         -6.8140    -0.6220    -4.0070 hc         1 ZPZ       0.047700
     81 H35         -7.9400    -1.2860    -2.8040 hc         1 ZPZ       0.047700
     82 H36         -8.1970     0.3470    -3.4440 hc         1 ZPZ       0.047700
     83 H37         -6.7140     2.0110    -2.7510 ho         1 ZPZ       0.447000
@<TRIPOS>BOND
     1     1     2 ar  
     2     1     7 ar  
     3     1    47 1   
     4     2     3 ar  
     5     2    48 1   
     6     3     4 1   
     7     3     5 ar  
     8     5     6 ar  
     9     5    49 1   
    10     6     7 ar  
    11     6    50 1   
    12     7     8 1   
    13     8     9 1   
    14     8    10 1   
    15     8    51 1   
    16     9    52 1   
    17     9    53 1   
    18     9    54 1   
    19    10    11 1   
    20    10    55 1   
    21    11    12 2   
    22    11    13 1   
    23    13    14 ar  
    24    13    15 ar  
    25    14    24 ar  
    26    14    56 1   
    27    15    16 ar  
    28    15    57 1   
    29    16    17 1   
    30    16    23 ar  
    31    17    18 1   
    32    17    19 1   
    33    18    58 1   
    34    18    59 1   
    35    18    60 1   
    36    19    20 1   
    37    19    21 2   
    38    19    22 2   
    39    20    61 1   
    40    20    62 1   
    41    20    63 1   
    42    23    24 ar  
    43    23    64 1   
    44    24    25 1   
    45    25    26 2   
    46    25    27 1   
    47    27    28 1   
    48    27    65 1   
    49    28    29 1   
    50    28    36 1   
    51    28    66 1   
    52    29    30 1   
    53    29    67 1   
    54    29    68 1   
    55    30    31 ar  
    56    30    35 ar  
    57    31    32 ar  
    58    31    69 1   
    59    32    33 ar  
    60    32    70 1   
    61    33    34 ar  
    62    33    71 1   
    63    34    35 ar  
    64    34    72 1   
    65    35    73 1   
    66    36    37 1   
    67    36    38 1   
    68    36    74 1   
    69    37    75 1   
    70    38    39 1   
    71    38    76 1   
    72    38    77 1   
    73    39    40 1   
    74    39    41 1   
    75    40    43 2   
    76    40    78 1   
    77    41    42 2   
    78    42    43 1   
    79    43    44 1   
    80    44    45 1   
    81    44    46 1   
    82    44    79 1   
    83    45    80 1   
    84    45    81 1   
    85    45    82 1   
    86    46    83 1   
@<TRIPOS>SUBSTRUCTURE
     1 ZPZ         1 TEMP              0 ****  ****    0 ROOT
