@<TRIPOS>MOLECULE
ZPZ
   83    86     1     0     0
SMALL
abcg2


@<TRIPOS>ATOM
      1 CAS         -3.0460     3.0820     0.3160 ca         1 ZPZ      -0.079000
      2 CAQ         -4.1580     2.2520     0.2770 ca         1 ZPZ      -0.158000
      3 CBG         -4.4460     1.4850     1.3890 ca         1 ZPZ       0.179000
      4 FAK         -5.5180     0.6760     1.3650 f          1 ZPZ      -0.168000
      5 CAR         -3.6680     1.5280     2.5300 ca         1 ZPZ      -0.158000
      6 CAT         -2.5680     2.3740     2.5510 ca         1 ZPZ      -0.079000
      7 CBK         -2.2390     3.1580     1.4480 ca         1 ZPZ      -0.129300
      8 CBO         -0.9770     3.9940     1.4300 c3         1 ZPZ       0.168000
      9 CAB         -0.7790     4.8510     2.6720 c3         1 ZPZ      -0.103100
     10 NBC          0.1340     3.0770     1.2170 ns         1 ZPZ      -0.513900
     11 CBE          1.1470     3.2640     0.3560 c          1 ZPZ       0.616700
     12 OAE          1.3980     4.3230    -0.1970 o          1 ZPZ      -0.576100
     13 CBI          1.9350     2.0210     0.0810 ca         1 ZPZ      -0.142600
     14 CAU          1.2650     0.8130    -0.0770 ca         1 ZPZ      -0.079000
     15 CAV          3.3130     2.0680    -0.0650 ca         1 ZPZ      -0.026000
     16 CBL          4.0190     0.9070    -0.3680 ca         1 ZPZ       0.264000
     17 NBR          5.4320     0.9450    -0.4430 nh         1 ZPZ      -0.786300
     18 CAC          6.1970    -0.1680     0.1130 c3         1 ZPZ       0.201100
     19 SBT          6.1490     1.7900    -1.6940 s6         1 ZPZ       1.202100
     20 CAD          7.1770     2.9570    -0.8420 c3         1 ZPZ      -0.350100
     21 OAH          7.0120     0.8910    -2.4450 o          1 ZPZ      -0.524500
     22 OAG          5.0960     2.5050    -2.3970 o          1 ZPZ      -0.524500
     23 CAW          3.3430    -0.2940    -0.5430 ca         1 ZPZ      -0.059000
     24 CBJ          1.9640    -0.3450    -0.3800 ca         1 ZPZ      -0.147600
     25 CBF          1.2480    -1.6420    -0.5770 c          1 ZPZ       0.613700
     26 OAF          1.6150    -2.4580    -1.4010 o          1 ZPZ      -0.569100
     27 NBD          0.1640    -1.7960     0.2210 ns         1 ZPZ      -0.503900
     28 CBQ         -0.5830    -3.0290     0.3390 c3         1 ZPZ       0.067700
     29 CAY         -0.2100    -3.7570     1.6400 c3         1 ZPZ      -0.049100
     30 CBH          1.2700    -4.0060     1.7090 ca         1 ZPZ      -0.086300
     31 CAO          2.1240    -3.0860     2.3120 ca         1 ZPZ      -0.102500
     32 CAM          3.5010    -3.2650     2.2810 ca         1 ZPZ      -0.106000
     33 CAL          4.0440    -4.3780     1.6550 ca         1 ZPZ      -0.107000
     34 CAN          3.2010    -5.3110     1.0660 ca         1 ZPZ      -0.106000
     35 CAP          1.8270    -5.1220     1.0900 ca         1 ZPZ      -0.102500
     36 CBP         -2.0870    -2.7390     0.2490 c3         1 ZPZ       0.153300
     37 OAJ         -2.5110    -1.7730     1.1800 oh         1 ZPZ      -0.643000
     38 CAZ         -2.4560    -2.3600    -1.1830 c3         1 ZPZ       0.044600
     39 NBS         -3.8510    -1.9980    -1.3030 na         1 ZPZ       0.123800
     40 CAX         -4.3760    -0.8050    -1.6340 cc         1 ZPZ      -0.185000
     41 NBB         -4.7980    -2.8730    -1.0300 nc         1 ZPZ      -0.203800
     42 NBA         -5.9360    -2.2830    -1.1790 nd         1 ZPZ      -0.356000
     43 CBM         -5.7300    -1.0030    -1.5510 cd         1 ZPZ       0.207300
     44 CBN         -6.8450    -0.0400    -1.7980 c3         1 ZPZ       0.159000
     45 CAA         -7.9250    -0.6380    -2.6890 c3         1 ZPZ      -0.121100
     46 OAI         -6.2580     1.1080    -2.3750 oh         1 ZPZ      -0.674000
     47 H1          -2.8060     3.6800    -0.5540 ha         1 ZPZ       0.120000
     48 H2          -4.7830     2.1950    -0.6050 ha         1 ZPZ       0.143500
     49 H3          -3.9170     0.9180     3.3880 ha         1 ZPZ       0.143500
     50 H4          -1.9620     2.4040     3.4480 ha         1 ZPZ       0.120000
     51 H5          -1.0170     4.6510     0.5600 h1         1 ZPZ       0.082700
     52 H6          -1.6180     5.5360     2.7990 hc         1 ZPZ       0.046367
     53 H7          -0.6940     4.2480     3.5760 hc         1 ZPZ       0.046367
     54 H8           0.1310     5.4440     2.5770 hc         1 ZPZ       0.046367
     55 H9           0.1120     2.2160     1.7410 hn         1 ZPZ       0.310500
     56 H10          0.1850     0.7910    -0.0150 ha         1 ZPZ       0.120000
     57 H11          3.8400     3.0010     0.0870 ha         1 ZPZ       0.139000
     58 H12          6.2310    -1.0400    -0.5400 h1         1 ZPZ       0.051367
     59 H13          7.2170     0.1470     0.3240 h1         1 ZPZ       0.051367
     60 H14          5.7430    -0.4480     1.0600 h1         1 ZPZ       0.051367
     61 H15          7.8780     2.4290    -0.2000 h1         1 ZPZ       0.104367
     62 H16          7.7250     3.5270    -1.5900 h1         1 ZPZ       0.104367
     63 H17          6.5500     3.6180    -0.2490 h1         1 ZPZ       0.104367
     64 H18          3.8840    -1.1970    -0.7920 ha         1 ZPZ       0.143000
     65 H19          0.1170    -1.1870     1.0240 hn         1 ZPZ       0.305500
     66 H20         -0.3080    -3.6670    -0.5040 h1         1 ZPZ       0.092700
     67 H21         -0.5420    -3.1660     2.4970 hc         1 ZPZ       0.063200
     68 H22         -0.7620    -4.6990     1.6720 hc         1 ZPZ       0.063200
     69 H23          1.7130    -2.2160     2.8110 ha         1 ZPZ       0.108500
     70 H24          4.1480    -2.5330     2.7490 ha         1 ZPZ       0.113000
     71 H25          5.1170    -4.5210     1.6310 ha         1 ZPZ       0.113000
     72 H26          3.6150    -6.1870     0.5830 ha         1 ZPZ       0.113000
     73 H27          1.1780    -5.8500     0.6150 ha         1 ZPZ       0.108500
     74 H28         -2.6180    -3.6580     0.5110 h1         1 ZPZ       0.103700
     75 H29         -2.2600    -0.8940     0.8790 ho         1 ZPZ       0.440000
     76 H30         -1.8730    -1.5030    -1.5250 h1         1 ZPZ       0.078200
     77 H31         -2.2420    -3.1910    -1.8560 h1         1 ZPZ       0.078200
     78 H32         -3.7710     0.0440    -1.9010 h4         1 ZPZ       0.173000
     79 H33         -7.3000     0.2120    -0.8310 h1         1 ZPZ       0.048700
     80 H34         -7.5250    -0.8920    -3.6710 hc         1 ZPZ       0.047700
     81 H35         -8.3340    -1.5440    -2.2430 hc         1 ZPZ       0.047700
     82 H36         -8.7460     0.0680    -2.8210 hc         1 ZPZ       0.047700
     83 H37         -6.9250     1.8010    -2.4110 ho         1 ZPZ       0.447000
@<TRIPOS>BOND
     1     1     2 ar  
     2     1     7 ar  
     3     1    47 1   
     4     2     3 ar  
     5     2    48 1   
     6     3     4 1   
     7     3     5 ar  
     8     5     6 ar  
     9     5    49 1   
    10     6     7 ar  
    11     6    50 1   
    12     7     8 1   
    13     8     9 1   
    14     8    10 1   
    15     8    51 1   
    16     9    52 1   
    17     9    53 1   
    18     9    54 1   
    19    10    11 1   
    20    10    55 1   
    21    11    12 2   
    22    11    13 1   
    23    13    14 ar  
    24    13    15 ar  
    25    14    24 ar  
    26    14    56 1   
    27    15    16 ar  
    28    15    57 1   
    29    16    17 1   
    30    16    23 ar  
    31    17    18 1   
    32    17    19 1   
    33    18    58 1   
    34    18    59 1   
    35    18    60 1   
    36    19    20 1   
    37    19    21 2   
    38    19    22 2   
    39    20    61 1   
    40    20    62 1   
    41    20    63 1   
    42    23    24 ar  
    43    23    64 1   
    44    24    25 1   
    45    25    26 2   
    46    25    27 1   
    47    27    28 1   
    48    27    65 1   
    49    28    29 1   
    50    28    36 1   
    51    28    66 1   
    52    29    30 1   
    53    29    67 1   
    54    29    68 1   
    55    30    31 ar  
    56    30    35 ar  
    57    31    32 ar  
    58    31    69 1   
    59    32    33 ar  
    60    32    70 1   
    61    33    34 ar  
    62    33    71 1   
    63    34    35 ar  
    64    34    72 1   
    65    35    73 1   
    66    36    37 1   
    67    36    38 1   
    68    36    74 1   
    69    37    75 1   
    70    38    39 1   
    71    38    76 1   
    72    38    77 1   
    73    39    40 1   
    74    39    41 1   
    75    40    43 2   
    76    40    78 1   
    77    41    42 2   
    78    42    43 1   
    79    43    44 1   
    80    44    45 1   
    81    44    46 1   
    82    44    79 1   
    83    45    80 1   
    84    45    81 1   
    85    45    82 1   
    86    46    83 1   
@<TRIPOS>SUBSTRUCTURE
     1 ZPZ         1 TEMP              0 ****  ****    0 ROOT
