@<TRIPOS>MOLECULE
ZQ0
   44    45     1     0     0
SMALL
abcg2


@<TRIPOS>ATOM
      1 N1         -15.7870    17.0070    26.0150 ns         1 ZQ0      -0.513900
      2 N3         -19.2460    13.3840    25.7080 n          1 ZQ0      -0.408800
      3 C4         -14.8410    18.0450    26.4020 c3         1 ZQ0       0.108000
      4 C5         -16.5600    16.3740    26.9420 c          1 ZQ0       0.648100
      5 C6         -18.5410    15.0270    27.3740 c6         1 ZQ0       0.087000
      6 C7         -18.9140    13.5770    27.1180 c6         1 ZQ0       0.090000
      7 C8         -18.1410    13.7450    24.8310 c6         1 ZQ0       0.090000
      8 C10        -20.3240    12.7310    25.2070 c          1 ZQ0       0.544600
      9 C13        -23.4860    11.9450    26.9310 cc         1 ZQ0      -0.197000
     10 C15        -23.5310    13.8380    28.7340 c3         1 ZQ0      -0.128400
     11 C1         -13.8960    20.3910    28.3000 c3         1 ZQ0      -0.091100
     12 C11        -21.5220    12.5480    26.0440 cd         1 ZQ0       0.062500
     13 C12        -22.5300    11.6390    25.9200 cc         1 ZQ0      -0.097000
     14 C14        -23.0140    13.0330    27.6050 cd         1 ZQ0       0.162300
     15 C2         -14.4820    20.5280    26.8950 c3         1 ZQ0      -0.069400
     16 C3         -15.4810    19.4280    26.5290 c3         1 ZQ0      -0.106400
     17 C9         -17.7310    15.1980    25.0640 c6         1 ZQ0       0.087000
     18 N2         -17.4690    15.4470    26.4770 n          1 ZQ0      -0.427800
     19 O1         -16.4220    16.5860    28.1540 o          1 ZQ0      -0.644100
     20 O2         -20.3520    12.2970    24.0470 o          1 ZQ0      -0.600100
     21 O3         -21.8160    13.4110    27.0730 os         1 ZQ0      -0.254000
     22 H10        -16.0780    17.0110    25.0530 hn         1 ZQ0       0.302500
     23 H9         -14.0550    18.0710    25.6440 h1         1 ZQ0       0.059200
     24 H8         -14.3840    17.7420    27.3410 h1         1 ZQ0       0.059200
     25 H12        -18.2010    15.1480    28.3970 h1         1 ZQ0       0.056200
     26 H11        -19.4270    15.6580    27.2220 h1         1 ZQ0       0.056200
     27 H14        -18.0570    12.9350    27.3520 h1         1 ZQ0       0.065950
     28 H13        -19.7410    13.2880    27.7530 h1         1 ZQ0       0.065950
     29 H15        -17.2890    13.0870    25.0300 h1         1 ZQ0       0.065950
     30 H16        -18.4500    13.6110    23.7990 h1         1 ZQ0       0.065950
     31 H20        -24.4090    11.4280    27.1360 ha         1 ZQ0       0.145000
     32 H23        -23.6700    14.8810    28.4390 hc         1 ZQ0       0.058700
     33 H22        -24.4890    13.4380    29.0610 hc         1 ZQ0       0.058700
     34 H21        -22.8370    13.8210    29.5790 hc         1 ZQ0       0.058700
     35 H2         -13.2420    21.2330    28.5340 hc         1 ZQ0       0.035033
     36 H1         -14.6910    20.3640    29.0510 hc         1 ZQ0       0.035033
     37 H3         -13.3080    19.4770    28.4080 hc         1 ZQ0       0.035033
     38 H19        -22.5750    10.8470    25.1920 ha         1 ZQ0       0.156000
     39 H4         -14.9840    21.4960    26.8110 hc         1 ZQ0       0.036700
     40 H5         -13.6720    20.5380    26.1580 hc         1 ZQ0       0.036700
     41 H6         -16.2740    19.3820    27.2820 hc         1 ZQ0       0.044700
     42 H7         -15.9610    19.6730    25.5760 hc         1 ZQ0       0.044700
     43 H18        -16.8320    15.3710    24.4770 h1         1 ZQ0       0.056200
     44 H17        -18.5210    15.8630    24.6960 h1         1 ZQ0       0.056200
@<TRIPOS>BOND
     1     1     3 1   
     2     1     4 1   
     3     1    22 1   
     4     2     6 1   
     5     2     7 1   
     6     2     8 1   
     7     3    16 1   
     8     3    23 1   
     9     3    24 1   
    10     4    18 1   
    11     4    19 2   
    12     5     6 1   
    13     5    18 1   
    14     5    25 1   
    15     5    26 1   
    16     6    27 1   
    17     6    28 1   
    18     7    17 1   
    19     7    29 1   
    20     7    30 1   
    21     8    12 1   
    22     8    20 2   
    23     9    13 1   
    24     9    14 2   
    25     9    31 1   
    26    10    14 1   
    27    10    32 1   
    28    10    33 1   
    29    10    34 1   
    30    11    15 1   
    31    11    35 1   
    32    11    36 1   
    33    11    37 1   
    34    12    13 2   
    35    12    21 1   
    36    13    38 1   
    37    14    21 1   
    38    15    16 1   
    39    15    39 1   
    40    15    40 1   
    41    16    41 1   
    42    16    42 1   
    43    17    18 1   
    44    17    43 1   
    45    17    44 1   
@<TRIPOS>SUBSTRUCTURE
     1 ZQ0         1 TEMP              0 ****  ****    0 ROOT
