@<TRIPOS>MOLECULE
ZQ0
   44    45     1     0     0
SMALL
No Charge or Current Charge


@<TRIPOS>ATOM
      1 N1         -15.6420    17.0330    26.1750 ns         1 ZQ0      -0.513900
      2 N3         -19.4260    13.5550    25.7050 n          1 ZQ0      -0.408800
      3 C4         -14.6950    18.1190    26.4410 c3         1 ZQ0       0.108000
      4 C5         -16.4250    16.4230    27.1250 c          1 ZQ0       0.648100
      5 C6         -18.3490    14.8870    27.5750 c6         1 ZQ0       0.087000
      6 C7         -19.0000    13.5570    27.1310 c6         1 ZQ0       0.090000
      7 C8         -18.2910    13.9070    24.8150 c6         1 ZQ0       0.090000
      8 C10        -20.4380    12.6780    25.2300 c          1 ZQ0       0.544600
      9 C13        -23.7020    11.8720    26.7400 cc         1 ZQ0      -0.197000
     10 C15        -23.8780    13.5160    28.7430 c3         1 ZQ0      -0.128400
     11 C1         -13.6430    20.6480    28.0710 c3         1 ZQ0      -0.091100
     12 C11        -21.6870    12.5250    26.0550 cd         1 ZQ0       0.062500
     13 C12        -22.7070    11.6540    25.7680 cc         1 ZQ0      -0.097000
     14 C14        -23.2390    12.8710    27.5480 cd         1 ZQ0       0.162300
     15 C2         -14.4410    20.6810    26.7510 c3         1 ZQ0      -0.069400
     16 C3         -15.4040    19.4850    26.5620 c3         1 ZQ0      -0.106400
     17 C9         -17.5670    15.2230    25.1990 c6         1 ZQ0       0.087000
     18 N2         -17.3030    15.4240    26.6570 n          1 ZQ0      -0.427800
     19 O1         -16.3560    16.7250    28.3070 o          1 ZQ0      -0.644100
     20 O2         -20.3020    12.0990    24.1570 o          1 ZQ0      -0.600100
     21 O3         -22.0020    13.3170    27.1440 os         1 ZQ0      -0.254000
     22 H10        -15.7540    16.7180    25.2220 hn         1 ZQ0       0.302500
     23 H9         -13.9690    18.1560    25.6180 h1         1 ZQ0       0.059200
     24 H8         -14.1470    17.8950    27.3650 h1         1 ZQ0       0.059200
     25 H12        -17.9210    14.7410    28.5770 h1         1 ZQ0       0.056200
     26 H11        -19.1390    15.6450    27.6710 h1         1 ZQ0       0.056200
     27 H14        -18.2540    12.7590    27.2590 h1         1 ZQ0       0.065950
     28 H13        -19.8130    13.3160    27.8220 h1         1 ZQ0       0.065950
     29 H15        -17.5620    13.0840    24.8430 h1         1 ZQ0       0.065950
     30 H16        -18.6390    13.9920    23.7760 h1         1 ZQ0       0.065950
     31 H20        -24.6490    11.3470    26.8170 ha         1 ZQ0       0.145000
     32 H23        -24.0760    14.5770    28.5540 hc         1 ZQ0       0.058700
     33 H22        -24.8320    13.0340    28.9890 hc         1 ZQ0       0.058700
     34 H21        -23.2270    13.4430    29.6210 hc         1 ZQ0       0.058700
     35 H2         -13.0390    21.5580    28.1710 hc         1 ZQ0       0.035033
     36 H1         -14.3200    20.5910    28.9320 hc         1 ZQ0       0.035033
     37 H3         -12.9660    19.7870    28.1030 hc         1 ZQ0       0.035033
     38 H19        -22.7500    10.9340    24.9560 ha         1 ZQ0       0.156000
     39 H4         -15.0260    21.6090    26.7200 hc         1 ZQ0       0.036700
     40 H5         -13.7420    20.7230    25.9070 hc         1 ZQ0       0.036700
     41 H6         -16.1130    19.4570    27.3990 hc         1 ZQ0       0.044700
     42 H7         -15.9960    19.6560    25.6550 hc         1 ZQ0       0.044700
     43 H18        -16.6240    15.2540    24.6360 h1         1 ZQ0       0.056200
     44 H17        -18.1800    16.0660    24.8490 h1         1 ZQ0       0.056200
@<TRIPOS>BOND
     1     1     3 1   
     2     1     4 1   
     3     1    22 1   
     4     2     6 1   
     5     2     7 1   
     6     2     8 1   
     7     3    16 1   
     8     3    23 1   
     9     3    24 1   
    10     4    18 1   
    11     4    19 2   
    12     5     6 1   
    13     5    18 1   
    14     5    25 1   
    15     5    26 1   
    16     6    27 1   
    17     6    28 1   
    18     7    17 1   
    19     7    29 1   
    20     7    30 1   
    21     8    12 1   
    22     8    20 2   
    23     9    13 1   
    24     9    14 2   
    25     9    31 1   
    26    10    14 1   
    27    10    32 1   
    28    10    33 1   
    29    10    34 1   
    30    11    15 1   
    31    11    35 1   
    32    11    36 1   
    33    11    37 1   
    34    12    13 2   
    35    12    21 1   
    36    13    38 1   
    37    14    21 1   
    38    15    16 1   
    39    15    39 1   
    40    15    40 1   
    41    16    41 1   
    42    16    42 1   
    43    17    18 1   
    44    17    43 1   
    45    17    44 1   
@<TRIPOS>SUBSTRUCTURE
     1 ZQ0         1 TEMP              0 ****  ****    0 ROOT
