@<TRIPOS>MOLECULE
ZQ1
   48    50     1     0     0
SMALL
No Charge or Current Charge


@<TRIPOS>ATOM
      1 C2          21.3340    41.6820   -21.7250 c6         1 ZQ1       0.194300
      2 C3          21.2510    42.2400   -23.1660 c6         1 ZQ1      -0.068400
      3 C4          22.4430    43.1800   -23.4720 c6         1 ZQ1      -0.018400
      4 C5          22.3920    43.7350   -24.9040 ca         1 ZQ1      -0.068300
      5 C6          22.2840    45.1260   -25.1170 ca         1 ZQ1      -0.097500
      6 C10         22.4530    42.8720   -26.0190 ca         1 ZQ1      -0.097500
      7 C11         22.8350    41.3820   -18.8000 ca         1 ZQ1      -0.373500
      8 O4          21.4260    39.4100   -19.8810 o          1 ZQ1      -0.545500
      9 O3          23.9660    39.3430   -20.0820 o          1 ZQ1      -0.545500
     10 C18         21.6570    41.9080   -18.2710 ca         1 ZQ1       0.427900
     11 N2          21.6550    42.8830   -17.3350 nb         1 ZQ1      -0.683000
     12 C14         22.8530    43.3670   -16.8860 ca         1 ZQ1       0.369500
     13 C15         22.8540    44.4770   -15.8220 c          1 ZQ1       0.493600
     14 O2          23.8800    44.9740   -15.3600 o          1 ZQ1      -0.613100
     15 N1          21.6040    44.8980   -15.4000 ns         1 ZQ1      -0.423900
     16 C16         21.3520    45.9410   -14.3800 c3         1 ZQ1      -0.062000
     17 C17         19.8520    46.3320   -14.3110 c          1 ZQ1       0.716000
     18 O1          19.5550    47.5100   -14.4510 o          1 ZQ1      -0.722500
     19 O           19.0270    45.4400   -14.1700 o          1 ZQ1      -0.722500
     20 C13         24.0780    42.8690   -17.3780 ca         1 ZQ1      -0.139000
     21 C12         24.0770    41.8580   -18.3490 ca         1 ZQ1       0.002000
     22 N           22.6230    40.9780   -21.4870 n3         1 ZQ1      -0.731500
     23 C1          23.7840    41.8740   -21.7380 c6         1 ZQ1       0.194300
     24 C           23.7680    42.4320   -23.1800 c6         1 ZQ1      -0.068400
     25 C9          22.4060    43.3920   -27.3250 ca         1 ZQ1      -0.104000
     26 C8          22.2980    44.7770   -27.5250 ca         1 ZQ1       0.117000
     27 Cl          22.2390    45.4260   -29.1590 cl         1 ZQ1      -0.215000
     28 C7          22.2370    45.6440   -26.4230 ca         1 ZQ1      -0.104000
     29 H1          21.2080    42.5110   -21.0130 h1         1 ZQ1       0.059950
     30 H2          20.4810    41.0020   -21.5810 h1         1 ZQ1       0.059950
     31 H3          20.3040    42.7810   -23.2970 hc         1 ZQ1       0.053200
     32 H4          21.2330    41.4010   -23.8730 hc         1 ZQ1       0.053200
     33 H5          22.3830    44.0260   -22.7720 hc         1 ZQ1       0.057700
     34 H6          22.2360    45.8080   -24.2710 ha         1 ZQ1       0.120500
     35 H7          22.5360    41.7970   -25.8780 ha         1 ZQ1       0.120500
     36 H8          20.6780    41.5590   -18.5970 h4         1 ZQ1       0.032100
     37 H9          20.8100    44.4250   -15.8250 hn         1 ZQ1       0.319500
     38 H10         21.6590    45.5650   -13.3950 h1         1 ZQ1       0.038200
     39 H11         21.9450    46.8330   -14.6190 h1         1 ZQ1       0.038200
     40 H13         25.0180    43.2660   -17.0060 ha         1 ZQ1       0.155000
     41 H14         25.0150    41.4630   -18.7360 ha         1 ZQ1       0.129000
     42 H15         24.7320    41.3330   -21.5940 h1         1 ZQ1       0.059950
     43 H16         23.7840    42.7170   -21.0310 h1         1 ZQ1       0.059950
     44 H17         23.9030    41.6020   -23.8870 hc         1 ZQ1       0.053200
     45 H18         24.6200    43.1090   -23.3240 hc         1 ZQ1       0.053200
     46 H19         22.4520    42.7220   -28.1800 ha         1 ZQ1       0.127000
     47 H20         22.1540    46.7160   -26.5810 ha         1 ZQ1       0.127000
     48 S           22.7110    40.1010   -20.0260 sy         1 ZQ1       1.171600
@<TRIPOS>BOND
     1     1     2 1   
     2     1    22 1   
     3     1    29 1   
     4     1    30 1   
     5     2     3 1   
     6     2    31 1   
     7     2    32 1   
     8     3     4 1   
     9     3    24 1   
    10     3    33 1   
    11     4     5 ar  
    12     4     6 ar  
    13     5    28 ar  
    14     5    34 1   
    15     6    25 ar  
    16     6    35 1   
    17     7    10 ar  
    18     7    21 ar  
    19     7    48 1   
    20     8    48 2   
    21     9    48 2   
    22    10    11 ar  
    23    10    36 1   
    24    11    12 ar  
    25    12    13 1   
    26    12    20 ar  
    27    13    14 2   
    28    13    15 1   
    29    15    16 1   
    30    15    37 1   
    31    16    17 1   
    32    16    38 1   
    33    16    39 1   
    34    17    18 1   
    35    17    19 1   
    36    20    21 ar  
    37    20    40 1   
    38    21    41 1   
    39    22    23 1   
    40    22    48 1   
    41    23    24 1   
    42    23    42 1   
    43    23    43 1   
    44    24    44 1   
    45    24    45 1   
    46    25    26 ar  
    47    25    46 1   
    48    26    27 1   
    49    26    28 ar  
    50    28    47 1   
@<TRIPOS>SUBSTRUCTURE
     1 ZQ1         1 TEMP              0 ****  ****    0 ROOT
