@<TRIPOS>MOLECULE
ZQ1
   48    50     1     0     0
SMALL
abcg2


@<TRIPOS>ATOM
      1 C2          21.4430    42.0160   -21.6720 c6         1 ZQ1       0.194300
      2 C3          21.2820    42.3730   -23.1420 c6         1 ZQ1      -0.068400
      3 C4          22.4160    43.2830   -23.6170 c6         1 ZQ1      -0.018400
      4 C5          22.2950    43.6450   -25.0740 ca         1 ZQ1      -0.068300
      5 C6          22.2140    44.9770   -25.4680 ca         1 ZQ1      -0.097500
      6 C10         22.2800    42.6660   -26.0670 ca         1 ZQ1      -0.097500
      7 C11         22.8760    41.5550   -18.7370 ca         1 ZQ1      -0.373500
      8 O4          21.7790    39.5790   -20.0400 o          1 ZQ1      -0.545500
      9 O3          24.2700    39.8830   -20.1700 o          1 ZQ1      -0.545500
     10 C18         21.6630    41.8460   -18.1220 ca         1 ZQ1       0.427900
     11 N2          21.5770    42.6840   -17.1050 nb         1 ZQ1      -0.683000
     12 C14         22.6820    43.2660   -16.6530 ca         1 ZQ1       0.369500
     13 C15         22.5510    44.2120   -15.4860 c          1 ZQ1       0.493600
     14 O2          23.5380    44.7820   -15.0410 o          1 ZQ1      -0.613100
     15 N1          21.3190    44.3250   -14.9970 ns         1 ZQ1      -0.423900
     16 C16         20.9720    45.2890   -13.9880 c3         1 ZQ1      -0.062000
     17 C17         20.8410    46.7510   -14.4960 c          1 ZQ1       0.716000
     18 O1          20.5680    47.5740   -13.6020 o          1 ZQ1      -0.722500
     19 O           21.0050    46.9570   -15.7080 o          1 ZQ1      -0.722500
     20 C13         23.9340    43.0350   -17.2050 ca         1 ZQ1      -0.139000
     21 C12         24.0350    42.1580   -18.2710 ca         1 ZQ1       0.002000
     22 N           22.7520    41.3890   -21.4670 n3         1 ZQ1      -0.731500
     23 C1          23.8690    42.2650   -21.8320 c6         1 ZQ1       0.194300
     24 C           23.7610    42.6240   -23.3050 c6         1 ZQ1      -0.068400
     25 C9          22.1900    43.0010   -27.4090 ca         1 ZQ1      -0.104000
     26 C8          22.1150    44.3380   -27.7680 ca         1 ZQ1       0.117000
     27 CL          22.0090    44.7680   -29.4460 cl         1 ZQ1      -0.215000
     28 C7          22.1250    45.3340   -26.8060 ca         1 ZQ1      -0.104000
     29 H1          21.3550    42.9210   -21.0570 h1         1 ZQ1       0.059950
     30 H2          20.6540    41.3280   -21.3760 h1         1 ZQ1       0.059950
     31 H3          20.3180    42.8670   -23.2750 hc         1 ZQ1       0.053200
     32 H4          21.2620    41.4530   -23.7300 hc         1 ZQ1       0.053200
     33 H5          22.3620    44.2110   -23.0360 hc         1 ZQ1       0.057700
     34 H6          22.2230    45.7580   -24.7170 ha         1 ZQ1       0.120500
     35 H7          22.3430    41.6180   -25.8000 ha         1 ZQ1       0.120500
     36 H8          20.7390    41.3860   -18.4540 h4         1 ZQ1       0.032100
     37 H9          20.5810    43.8540   -15.4980 hn         1 ZQ1       0.319500
     38 H10         20.0220    44.9810   -13.5480 h1         1 ZQ1       0.038200
     39 H11         21.7080    45.2580   -13.1820 h1         1 ZQ1       0.038200
     40 H13         24.8110    43.5230   -16.8060 ha         1 ZQ1       0.155000
     41 H14         24.9980    41.9480   -18.7150 ha         1 ZQ1       0.129000
     42 H15         24.8110    41.7560   -21.6470 h1         1 ZQ1       0.059950
     43 H16         23.8520    43.1790   -21.2230 h1         1 ZQ1       0.059950
     44 H17         23.8860    41.7180   -23.9040 hc         1 ZQ1       0.053200
     45 H18         24.5810    43.2980   -23.5590 hc         1 ZQ1       0.053200
     46 H19         22.1810    42.2270   -28.1650 ha         1 ZQ1       0.127000
     47 H20         22.0630    46.3760   -27.0910 ha         1 ZQ1       0.127000
     48 S           22.9360    40.4520   -20.1260 sy         1 ZQ1       1.171600
@<TRIPOS>BOND
     1     1     2 1   
     2     1    22 1   
     3     1    29 1   
     4     1    30 1   
     5     2     3 1   
     6     2    31 1   
     7     2    32 1   
     8     3     4 1   
     9     3    24 1   
    10     3    33 1   
    11     4     5 ar  
    12     4     6 ar  
    13     5    28 ar  
    14     5    34 1   
    15     6    25 ar  
    16     6    35 1   
    17     7    10 ar  
    18     7    21 ar  
    19     7    48 1   
    20     8    48 2   
    21     9    48 2   
    22    10    11 ar  
    23    10    36 1   
    24    11    12 ar  
    25    12    13 1   
    26    12    20 ar  
    27    13    14 2   
    28    13    15 1   
    29    15    16 1   
    30    15    37 1   
    31    16    17 1   
    32    16    38 1   
    33    16    39 1   
    34    17    18 1   
    35    17    19 1   
    36    20    21 ar  
    37    20    40 1   
    38    21    41 1   
    39    22    23 1   
    40    22    48 1   
    41    23    24 1   
    42    23    42 1   
    43    23    43 1   
    44    24    44 1   
    45    24    45 1   
    46    25    26 ar  
    47    25    46 1   
    48    26    27 1   
    49    26    28 ar  
    50    28    47 1   
@<TRIPOS>SUBSTRUCTURE
     1 ZQ1         1 TEMP              0 ****  ****    0 ROOT
