@<TRIPOS>MOLECULE
ZQ4
  126   126     1     0     0
SMALL
No Charge or Current Charge


@<TRIPOS>ATOM
      1 C1          -2.7460   -34.1640    38.4700 c3         1 ZQ4      -0.432400
      2 C10         -8.6800   -26.1980    35.1830 c3         1 ZQ4      -0.074400
      3 C11         -4.4940   -18.2090    32.9760 c3         1 ZQ4      -0.068400
      4 C12         -8.5400   -28.2760    36.6570 c3         1 ZQ4      -0.070400
      5 C13         -2.9870   -17.9080    33.2310 c3         1 ZQ4      -0.069400
      6 C14         -2.0010   -19.0560    32.8740 c3         1 ZQ4      -0.073400
      7 C15         -2.0250   -19.5280    31.3860 c3         1 ZQ4      -0.061700
      8 C17         -7.2860   -30.4760    36.0440 c3         1 ZQ4      -0.075400
      9 C18         -7.0410   -31.9770    36.3700 c3         1 ZQ4      -0.062700
     10 C19         -7.4660   -23.9840    31.3420 c3         1 ZQ4      -0.089100
     11 C2          -8.3830   -23.3440    32.4160 c3         1 ZQ4      -0.054700
     12 C20         -1.4960   -20.9800    31.2040 c3         1 ZQ4      -0.072400
     13 C21         -4.9490   -19.5970    35.1020 c3         1 ZQ4      -0.085100
     14 C22        -10.0520   -28.2900    34.5630 c3         1 ZQ4      -0.084100
     15 C23         -5.7310   -32.4670    35.6880 c3         1 ZQ4      -0.066400
     16 C24         -2.4680   -22.0720    31.7250 c3         1 ZQ4      -0.078400
     17 C25         -1.2690   -18.5340    30.4730 c3         1 ZQ4      -0.085100
     18 C26         -0.4960   -33.7340    41.7050 c6         1 ZQ4       0.084300
     19 C27         -1.4940   -34.4820    42.6440 c6         1 ZQ4       0.145300
     20 C28         -1.2080   -33.2500    40.4070 c6         1 ZQ4       0.119300
     21 C29         -2.2120   -35.6290    41.8600 c6         1 ZQ4       0.180300
     22 C3          -5.0190   -19.5570    33.5530 c3         1 ZQ4      -0.066700
     23 C30         -8.2630   -32.8610    36.0050 c3         1 ZQ4      -0.083100
     24 C31         -1.9220   -34.4840    39.7380 c6         1 ZQ4       0.214300
     25 C32         -5.2710   -33.8920    36.0920 c3         1 ZQ4      -0.089400
     26 C33         -1.9860   -23.5140    31.4440 c3         1 ZQ4      -0.072400
     27 C34         -3.0330   -24.6090    31.7670 c3         1 ZQ4      -0.072400
     28 C35         -3.9170   -34.3140    35.4700 c3         1 ZQ4       0.225600
     29 C36         -3.3040   -36.3630    42.7140 c3         1 ZQ4       0.173600
     30 C37         -3.4560   -24.6870    33.2540 c3         1 ZQ4      -0.077400
     31 C38         -4.4000   -25.8750    33.5510 c3         1 ZQ4      -0.076400
     32 C39         -4.8060   -25.9690    35.0340 c3         1 ZQ4      -0.090100
     33 C4          -8.1380   -21.8110    32.5420 c3         1 ZQ4      -0.068400
     34 C5          -8.3010   -24.0650    33.7930 c3         1 ZQ4      -0.075400
     35 C6          -8.7470   -27.7500    35.2050 c3         1 ZQ4      -0.061700
     36 C7          -6.4330   -19.9110    33.0170 c3         1 ZQ4      -0.071400
     37 C8          -6.7680   -21.4160    33.1480 c3         1 ZQ4      -0.080400
     38 O1          -2.8450   -35.0980    40.6640 os         1 ZQ4      -0.437000
     39 O2           0.1030   -32.6210    42.4040 oh         1 ZQ4      -0.684000
     40 O3          -0.7740   -34.9640    43.7960 oh         1 ZQ4      -0.736000
     41 O4          -2.1150   -32.1840    40.7580 oh         1 ZQ4      -0.683000
     42 O5          -2.8810   -33.4270    35.9150 os         1 ZQ4      -0.596400
     43 O6          -4.4330   -35.5370    43.0720 oh         1 ZQ4      -0.701000
     44 O7          -0.7570   -32.8030    37.1930 o          1 ZQ4      -0.818000
     45 O8          -1.0990   -35.1710    36.5480 o          1 ZQ4      -0.818000
     46 P1          -1.7500   -33.8950    36.9690 p5         1 ZQ4       1.400400
     47 H1          -3.3990   -35.0080    38.2310 hc         1 ZQ4       0.062700
     48 H2          -3.3730   -33.2790    38.6100 hc         1 ZQ4       0.062700
     49 H3          -7.7730   -25.8810    35.7110 hc         1 ZQ4       0.036200
     50 H4          -9.5250   -25.7860    35.7490 hc         1 ZQ4       0.036200
     51 H5          -5.0910   -17.3860    33.3880 hc         1 ZQ4       0.033700
     52 H6          -4.6690   -18.1880    31.8940 hc         1 ZQ4       0.033700
     53 H7          -7.6200   -27.8360    37.0640 hc         1 ZQ4       0.034200
     54 H8          -9.3580   -27.9060    37.2870 hc         1 ZQ4       0.034200
     55 H9          -2.8510   -17.6520    34.2890 hc         1 ZQ4       0.034200
     56 H10         -2.7120   -17.0070    32.6700 hc         1 ZQ4       0.034200
     57 H11         -2.1910   -19.8970    33.5480 hc         1 ZQ4       0.040700
     58 H12         -0.9830   -18.7280    33.1220 hc         1 ZQ4       0.040700
     59 H13         -3.0630   -19.5400    31.0380 hc         1 ZQ4       0.046700
     60 H14         -8.3150   -30.0280    37.8970 hc         1 ZQ4       0.034700
     61 H15         -9.4040   -30.2670    36.5450 hc         1 ZQ4       0.034700
     62 H16         -7.4700   -30.3750    34.9680 hc         1 ZQ4       0.039700
     63 H17         -6.3690   -29.9130    36.2590 hc         1 ZQ4       0.039700
     64 H18         -6.8910   -32.0550    37.4550 hc         1 ZQ4       0.044700
     65 H19         -7.7930   -25.0020    31.1010 hc         1 ZQ4       0.032700
     66 H20         -7.4930   -23.4040    30.4120 hc         1 ZQ4       0.032700
     67 H21         -6.4260   -24.0330    31.6830 hc         1 ZQ4       0.032700
     68 H22         -9.4120   -23.4600    32.0550 hc         1 ZQ4       0.037700
     69 H23         -0.5230   -21.0830    31.7000 hc         1 ZQ4       0.037200
     70 H24         -1.3240   -21.1620    30.1360 hc         1 ZQ4       0.037200
     71 H25         -5.2550   -20.5740    35.4900 hc         1 ZQ4       0.031700
     72 H26         -3.9280   -19.4160    35.4560 hc         1 ZQ4       0.031700
     73 H27         -5.6030   -18.8330    35.5400 hc         1 ZQ4       0.031700
     74 H28        -10.1620   -27.9380    33.5320 hc         1 ZQ4       0.028367
     75 H29        -10.0510   -29.3850    34.5250 hc         1 ZQ4       0.028367
     76 H30        -10.9310   -27.9660    35.1340 hc         1 ZQ4       0.028367
     77 H31         -5.8520   -32.4260    34.5980 hc         1 ZQ4       0.049200
     78 H32         -4.9270   -31.7630    35.9360 hc         1 ZQ4       0.049200
     79 H33         -3.4490   -21.9290    31.2550 hc         1 ZQ4       0.038200
     80 H34         -2.6090   -21.9560    32.8040 hc         1 ZQ4       0.038200
     81 H35         -1.6920   -17.5260    30.5550 hc         1 ZQ4       0.028700
     82 H36         -0.2070   -18.4850    30.7430 hc         1 ZQ4       0.028700
     83 H37         -1.3410   -18.8410    29.4230 hc         1 ZQ4       0.028700
     84 H38          0.2880   -34.4490    41.4090 h1         1 ZQ4       0.044700
     85 H39         -2.2670   -33.7660    42.9640 h1         1 ZQ4       0.075700
     86 H40         -0.4350   -32.8750    39.7220 h1         1 ZQ4       0.065700
     87 H41         -1.4660   -36.3770    41.5550 h1         1 ZQ4       0.033700
     88 H42         -4.3590   -20.3460    33.1810 hc         1 ZQ4       0.052700
     89 H43         -8.1000   -33.9050    36.2940 hc         1 ZQ4       0.024367
     90 H44         -9.1660   -32.5290    36.5280 hc         1 ZQ4       0.024367
     91 H45         -8.4590   -32.8290    34.9260 hc         1 ZQ4       0.024367
     92 H46         -1.1630   -35.2360    39.4700 h1         1 ZQ4       0.044700
     93 H47         -5.2250   -33.9640    37.1840 hc         1 ZQ4       0.028200
     94 H48         -6.0190   -34.6220    35.7650 hc         1 ZQ4       0.028200
     95 H49         -1.0690   -23.7070    32.0150 hc         1 ZQ4       0.037200
     96 H50         -1.7190   -23.5990    30.3830 hc         1 ZQ4       0.037200
     97 H51         -3.9240   -24.4490    31.1470 hc         1 ZQ4       0.036200
     98 H52         -2.6170   -25.5790    31.4680 hc         1 ZQ4       0.036200
     99 H53         -3.7020   -35.3530    35.7540 h1         1 ZQ4       0.018200
    100 H54         -3.9980   -34.2790    34.3760 h1         1 ZQ4       0.018200
    101 H55         -2.8280   -36.7600    43.6200 h1         1 ZQ4       0.021700
    102 H56         -3.6510   -37.2280    42.1340 h1         1 ZQ4       0.021700
    103 H57         -2.5590   -24.7750    33.8790 hc         1 ZQ4       0.038200
    104 H58         -3.9610   -23.7560    33.5410 hc         1 ZQ4       0.038200
    105 H59         -5.3050   -25.7860    32.9390 hc         1 ZQ4       0.036700
    106 H60         -3.9080   -26.8110    33.2590 hc         1 ZQ4       0.036700
    107 H61         -5.4740   -26.8250    35.1920 hc         1 ZQ4       0.034033
    108 H62         -3.9240   -26.1010    35.6710 hc         1 ZQ4       0.034033
    109 H63         -5.3300   -25.0600    35.3520 hc         1 ZQ4       0.034033
    110 H64         -8.2340   -21.3590    31.5460 hc         1 ZQ4       0.032700
    111 H65         -8.9330   -21.3690    33.1550 hc         1 ZQ4       0.032700
    112 H66         -7.2860   -23.9660    34.1960 hc         1 ZQ4       0.038700
    113 H67         -8.9710   -23.5540    34.4960 hc         1 ZQ4       0.038700
    114 H68         -7.9080   -28.1100    34.5980 hc         1 ZQ4       0.053700
    115 H69         -7.1910   -19.3100    33.5350 hc         1 ZQ4       0.033700
    116 H70         -6.4910   -19.6440    31.9540 hc         1 ZQ4       0.033700
    117 H71         -5.9740   -21.9890    32.6560 hc         1 ZQ4       0.043700
    118 H72         -6.7560   -21.6990    34.2060 hc         1 ZQ4       0.043700
    119 H73         -9.6440   -25.6920    33.2960 hc         1 ZQ4       0.037700
    120 H74         -7.9330   -26.1070    33.1540 hc         1 ZQ4       0.037700
    121 H75          0.9290   -32.3820    41.9240 ho         1 ZQ4       0.448000
    122 H76         -0.1480   -34.2310    44.0140 ho         1 ZQ4       0.510000
    123 H77         -1.6820   -31.7420    41.5250 ho         1 ZQ4       0.494000
    124 H78         -5.0760   -36.1190    43.5360 ho         1 ZQ4       0.485000
    125 C16         -8.4480   -29.8140    36.8300 c3         1 ZQ4      -0.071400
    126 C9          -8.6630   -25.5680    33.7690 c3         1 ZQ4      -0.073400
@<TRIPOS>BOND
     1     1    24 1   
     2     1    46 1   
     3     1    47 1   
     4     1    48 1   
     5     2    35 1   
     6     2    49 1   
     7     2    50 1   
     8     2   126 1   
     9     3     5 1   
    10     3    22 1   
    11     3    51 1   
    12     3    52 1   
    13     4    35 1   
    14     4    53 1   
    15     4    54 1   
    16     4   125 1   
    17     5     6 1   
    18     5    55 1   
    19     5    56 1   
    20     6     7 1   
    21     6    57 1   
    22     6    58 1   
    23     7    12 1   
    24     7    17 1   
    25     7    59 1   
    26     8     9 1   
    27     8    62 1   
    28     8    63 1   
    29     8   125 1   
    30     9    15 1   
    31     9    23 1   
    32     9    64 1   
    33    10    11 1   
    34    10    65 1   
    35    10    66 1   
    36    10    67 1   
    37    11    33 1   
    38    11    34 1   
    39    11    68 1   
    40    12    16 1   
    41    12    69 1   
    42    12    70 1   
    43    13    22 1   
    44    13    71 1   
    45    13    72 1   
    46    13    73 1   
    47    14    35 1   
    48    14    74 1   
    49    14    75 1   
    50    14    76 1   
    51    15    25 1   
    52    15    77 1   
    53    15    78 1   
    54    16    26 1   
    55    16    79 1   
    56    16    80 1   
    57    17    81 1   
    58    17    82 1   
    59    17    83 1   
    60    18    19 1   
    61    18    20 1   
    62    18    39 1   
    63    18    84 1   
    64    19    21 1   
    65    19    40 1   
    66    19    85 1   
    67    20    24 1   
    68    20    41 1   
    69    20    86 1   
    70    21    29 1   
    71    21    38 1   
    72    21    87 1   
    73    22    36 1   
    74    22    88 1   
    75    23    89 1   
    76    23    90 1   
    77    23    91 1   
    78    24    38 1   
    79    24    92 1   
    80    25    28 1   
    81    25    93 1   
    82    25    94 1   
    83    26    27 1   
    84    26    95 1   
    85    26    96 1   
    86    27    30 1   
    87    27    97 1   
    88    27    98 1   
    89    28    42 1   
    90    28    99 1   
    91    28   100 1   
    92    29    43 1   
    93    29   101 1   
    94    29   102 1   
    95    30    31 1   
    96    30   103 1   
    97    30   104 1   
    98    31    32 1   
    99    31   105 1   
   100    31   106 1   
   101    32   107 1   
   102    32   108 1   
   103    32   109 1   
   104    33    37 1   
   105    33   110 1   
   106    33   111 1   
   107    34   112 1   
   108    34   113 1   
   109    34   126 1   
   110    35   114 1   
   111    36    37 1   
   112    36   115 1   
   113    36   116 1   
   114    37   117 1   
   115    37   118 1   
   116    39   121 1   
   117    40   122 1   
   118    41   123 1   
   119    42    46 1   
   120    43   124 1   
   121    44    46 1   
   122    45    46 1   
   123    60   125 1   
   124    61   125 1   
   125   119   126 1   
   126   120   126 1   
@<TRIPOS>SUBSTRUCTURE
     1 ZQ4         1 TEMP              0 ****  ****    0 ROOT
