@<TRIPOS>MOLECULE
ZQ4
  126   126     1     0     0
SMALL
abcg2


@<TRIPOS>ATOM
      1 C1          -2.5970   -33.1190    38.8350 c3         1 ZQ4      -0.432400
      2 C10         -9.2800   -26.1380    34.6790 c3         1 ZQ4      -0.074400
      3 C11         -4.0930   -18.7440    33.4830 c3         1 ZQ4      -0.068400
      4 C12         -9.4000   -28.2680    35.9950 c3         1 ZQ4      -0.070400
      5 C13         -2.6070   -18.6910    33.8510 c3         1 ZQ4      -0.069400
      6 C14         -1.8060   -19.9260    33.4310 c3         1 ZQ4      -0.073400
      7 C15         -1.8510   -20.2550    31.9320 c3         1 ZQ4      -0.061700
      8 C17         -7.8090   -30.2210    35.5980 c3         1 ZQ4      -0.075400
      9 C18         -7.4100   -31.6320    36.0290 c3         1 ZQ4      -0.062700
     10 C19         -7.5740   -23.8140    31.2100 c3         1 ZQ4      -0.089100
     11 C2          -8.4880   -23.1670    32.2500 c3         1 ZQ4      -0.054700
     12 C20         -1.4950   -21.7190    31.6560 c3         1 ZQ4      -0.072400
     13 C21         -4.8470   -20.2050    35.4010 c3         1 ZQ4      -0.085100
     14 C22        -10.4660   -28.1530    33.7100 c3         1 ZQ4      -0.084100
     15 C23         -5.9590   -31.9080    35.6290 c3         1 ZQ4      -0.066400
     16 C24         -2.5900   -22.7060    32.0500 c3         1 ZQ4      -0.078400
     17 C25         -0.9430   -19.3130    31.1470 c3         1 ZQ4      -0.085100
     18 C26          0.3110   -33.7220    41.3280 c6         1 ZQ4       0.084300
     19 C27         -0.5680   -34.2550    42.4500 c6         1 ZQ4       0.145300
     20 C28         -0.5070   -32.9190    40.3170 c6         1 ZQ4       0.119300
     21 C29         -1.7370   -35.0310    41.8390 c6         1 ZQ4       0.180300
     22 C3          -4.8060   -20.0350    33.8850 c3         1 ZQ4      -0.066700
     23 C30         -8.3630   -32.6820    35.4640 c3         1 ZQ4      -0.083100
     24 C31         -1.6630   -33.7860    39.8310 c6         1 ZQ4       0.214300
     25 C32         -5.3790   -33.1940    36.2010 c3         1 ZQ4      -0.089400
     26 C33         -2.2460   -24.1550    31.7250 c3         1 ZQ4      -0.072400
     27 C34         -3.3970   -25.1340    31.9460 c3         1 ZQ4      -0.072400
     28 C35         -3.9260   -33.4260    35.8310 c3         1 ZQ4       0.225600
     29 C36         -2.7200   -35.5590    42.8630 c3         1 ZQ4       0.173600
     30 C37         -3.8850   -25.2300    33.3870 c3         1 ZQ4      -0.077400
     31 C38         -4.9260   -26.3250    33.5900 c3         1 ZQ4      -0.076400
     32 C39         -5.3820   -26.4530    35.0370 c3         1 ZQ4      -0.090100
     33 C4          -8.0690   -21.7210    32.5440 c3         1 ZQ4      -0.068400
     34 C5          -8.5860   -23.9950    33.5330 c3         1 ZQ4      -0.075400
     35 C6          -9.3210   -27.6630    34.5900 c3         1 ZQ4      -0.061700
     36 C7          -6.1990   -20.1370    33.2610 c3         1 ZQ4      -0.071400
     37 C8          -6.7090   -21.5730    33.2180 c3         1 ZQ4      -0.080400
     38 O1          -2.4420   -34.2160    40.9330 os         1 ZQ4      -0.437000
     39 O2           1.3240   -32.9310    41.9190 oh         1 ZQ4      -0.684000
     40 O3           0.1420   -35.1330    43.2900 oh         1 ZQ4      -0.736000
     41 O4          -1.0160   -31.7390    40.8860 oh         1 ZQ4      -0.683000
     42 O5          -3.1070   -32.3690    36.2960 os         1 ZQ4      -0.596400
     43 O6          -3.2560   -34.4900    43.6060 oh         1 ZQ4      -0.701000
     44 O7          -1.0980   -31.3350    37.3550 o          1 ZQ4      -0.818000
     45 O8          -1.0450   -33.8730    36.7320 o          1 ZQ4      -0.818000
     46 P1          -1.7860   -32.6660    37.2460 p5         1 ZQ4       1.400400
     47 H1          -3.4020   -33.8300    38.6190 hc         1 ZQ4       0.062700
     48 H2          -3.0660   -32.2340    39.2710 hc         1 ZQ4       0.062700
     49 H3          -8.4620   -25.8600    35.3540 hc         1 ZQ4       0.036200
     50 H4         -10.1980   -25.7740    35.1560 hc         1 ZQ4       0.036200
     51 H5          -4.6050   -17.8870    33.9360 hc         1 ZQ4       0.033700
     52 H6          -4.1980   -18.6120    32.4020 hc         1 ZQ4       0.033700
     53 H7          -8.6520   -27.7810    36.6310 hc         1 ZQ4       0.034200
     54 H8         -10.3740   -28.0140    36.4280 hc         1 ZQ4       0.034200
     55 H9          -2.4970   -18.5630    34.9310 hc         1 ZQ4       0.034200
     56 H10         -2.1710   -17.7930    33.4040 hc         1 ZQ4       0.034200
     57 H11         -2.1540   -20.7840    34.0140 hc         1 ZQ4       0.040700
     58 H12         -0.7590   -19.7870    33.7240 hc         1 ZQ4       0.040700
     59 H13         -2.8760   -20.1050    31.5700 hc         1 ZQ4       0.046700
     60 H14         -9.3110   -30.0810    37.1240 hc         1 ZQ4       0.034700
     61 H15         -9.9710   -30.2990    35.5240 hc         1 ZQ4       0.034700
     62 H16         -7.7480   -30.1530    34.5060 hc         1 ZQ4       0.039700
     63 H17         -7.0610   -29.5160    35.9820 hc         1 ZQ4       0.039700
     64 H18         -7.4690   -31.6710    37.1250 hc         1 ZQ4       0.044700
     65 H19         -7.9800   -24.7600    30.8500 hc         1 ZQ4       0.032700
     66 H20         -7.4460   -23.1640    30.3430 hc         1 ZQ4       0.032700
     67 H21         -6.5800   -24.0240    31.6140 hc         1 ZQ4       0.032700
     68 H22         -9.4940   -23.1220    31.8140 hc         1 ZQ4       0.037700
     69 H23         -0.5610   -21.9740    32.1720 hc         1 ZQ4       0.037200
     70 H24         -1.2910   -21.8400    30.5860 hc         1 ZQ4       0.037200
     71 H25         -5.3470   -21.1290    35.6940 hc         1 ZQ4       0.031700
     72 H26         -3.8450   -20.2350    35.8310 hc         1 ZQ4       0.031700
     73 H27         -5.3840   -19.3750    35.8670 hc         1 ZQ4       0.031700
     74 H28        -10.4000   -27.7530    32.6970 hc         1 ZQ4       0.028367
     75 H29        -10.4750   -29.2400    33.6240 hc         1 ZQ4       0.028367
     76 H30        -11.4300   -27.8470    34.1250 hc         1 ZQ4       0.028367
     77 H31         -5.8880   -31.9290    34.5340 hc         1 ZQ4       0.049200
     78 H32         -5.3430   -31.0660    35.9560 hc         1 ZQ4       0.049200
     79 H33         -3.5170   -22.4330    31.5300 hc         1 ZQ4       0.038200
     80 H34         -2.8090   -22.6140    33.1180 hc         1 ZQ4       0.038200
     81 H35         -1.1890   -18.2660    31.3310 hc         1 ZQ4       0.028700
     82 H36          0.1030   -19.4590    31.4270 hc         1 ZQ4       0.028700
     83 H37         -1.0260   -19.4850    30.0720 hc         1 ZQ4       0.028700
     84 H38          0.7480   -34.5820    40.7990 h1         1 ZQ4       0.044700
     85 H39         -0.9660   -33.4030    43.0180 h1         1 ZQ4       0.075700
     86 H40          0.1400   -32.6980    39.4560 h1         1 ZQ4       0.065700
     87 H41         -1.3220   -35.9100    41.3150 h1         1 ZQ4       0.033700
     88 H42         -4.2290   -20.8690    33.4700 hc         1 ZQ4       0.052700
     89 H43         -8.0940   -33.6900    35.7790 hc         1 ZQ4       0.024367
     90 H44         -9.3910   -32.5120    35.7860 hc         1 ZQ4       0.024367
     91 H45         -8.3510   -32.6610    34.3710 hc         1 ZQ4       0.024367
     92 H46         -1.2130   -34.6640    39.3410 h1         1 ZQ4       0.044700
     93 H47         -5.4810   -33.1940    37.2920 hc         1 ZQ4       0.028200
     94 H48         -5.9420   -34.0600    35.8400 hc         1 ZQ4       0.028200
     95 H49         -1.3820   -24.4670    32.3230 hc         1 ZQ4       0.037200
     96 H50         -1.9280   -24.2180    30.6800 hc         1 ZQ4       0.037200
     97 H51         -4.2360   -24.8520    31.2990 hc         1 ZQ4       0.036200
     98 H52         -3.0820   -26.1280    31.6150 hc         1 ZQ4       0.036200
     99 H53         -3.6010   -34.3930    36.2270 h1         1 ZQ4       0.018200
    100 H54         -3.8320   -33.4890    34.7400 h1         1 ZQ4       0.018200
    101 H55         -2.1990   -36.2840    43.4990 h1         1 ZQ4       0.021700
    102 H56         -3.5030   -36.1150    42.3300 h1         1 ZQ4       0.021700
    103 H57         -3.0320   -25.4200    34.0480 hc         1 ZQ4       0.038200
    104 H58         -4.3100   -24.2720    33.7070 hc         1 ZQ4       0.038200
    105 H59         -5.7930   -26.1230    32.9520 hc         1 ZQ4       0.036700
    106 H60         -4.5140   -27.2800    33.2520 hc         1 ZQ4       0.036700
    107 H61         -6.1110   -27.2560    35.1590 hc         1 ZQ4       0.034033
    108 H62         -4.5420   -26.6710    35.6990 hc         1 ZQ4       0.034033
    109 H63         -5.8480   -25.5290    35.3870 hc         1 ZQ4       0.034033
    110 H64         -8.0620   -21.1630    31.6010 hc         1 ZQ4       0.032700
    111 H65         -8.8340   -21.2460    33.1690 hc         1 ZQ4       0.032700
    112 H66         -7.6070   -24.0320    34.0240 hc         1 ZQ4       0.038700
    113 H67         -9.2540   -23.4790    34.2330 hc         1 ZQ4       0.038700
    114 H68         -8.3770   -27.9770    34.1270 hc         1 ZQ4       0.053700
    115 H69         -6.9060   -19.4940    33.7990 hc         1 ZQ4       0.033700
    116 H70         -6.1590   -19.7550    32.2340 hc         1 ZQ4       0.033700
    117 H71         -5.9660   -22.1750    32.6830 hc         1 ZQ4       0.043700
    118 H72         -6.7530   -21.9810    34.2310 hc         1 ZQ4       0.043700
    119 H73         -9.9990   -25.4290    32.7620 hc         1 ZQ4       0.037700
    120 H74         -8.3400   -25.9860    32.7540 hc         1 ZQ4       0.037700
    121 H75          2.0400   -32.8200    41.2850 ho         1 ZQ4       0.448000
    122 H76          0.8940   -34.6540    43.6530 ho         1 ZQ4       0.510000
    123 H77         -0.2860   -31.2950    41.3310 ho         1 ZQ4       0.494000
    124 H78         -3.7900   -34.8560    44.3160 ho         1 ZQ4       0.485000
    125 C16         -9.1880   -29.7760    36.0790 c3         1 ZQ4      -0.071400
    126 C9          -9.0730   -25.4270    33.3450 c3         1 ZQ4      -0.073400
@<TRIPOS>BOND
     1     1    24 1   
     2     1    46 1   
     3     1    47 1   
     4     1    48 1   
     5     2    35 1   
     6     2    49 1   
     7     2    50 1   
     8     2   126 1   
     9     3     5 1   
    10     3    22 1   
    11     3    51 1   
    12     3    52 1   
    13     4    35 1   
    14     4    53 1   
    15     4    54 1   
    16     4   125 1   
    17     5     6 1   
    18     5    55 1   
    19     5    56 1   
    20     6     7 1   
    21     6    57 1   
    22     6    58 1   
    23     7    12 1   
    24     7    17 1   
    25     7    59 1   
    26     8     9 1   
    27     8    62 1   
    28     8    63 1   
    29     8   125 1   
    30     9    15 1   
    31     9    23 1   
    32     9    64 1   
    33    10    11 1   
    34    10    65 1   
    35    10    66 1   
    36    10    67 1   
    37    11    33 1   
    38    11    34 1   
    39    11    68 1   
    40    12    16 1   
    41    12    69 1   
    42    12    70 1   
    43    13    22 1   
    44    13    71 1   
    45    13    72 1   
    46    13    73 1   
    47    14    35 1   
    48    14    74 1   
    49    14    75 1   
    50    14    76 1   
    51    15    25 1   
    52    15    77 1   
    53    15    78 1   
    54    16    26 1   
    55    16    79 1   
    56    16    80 1   
    57    17    81 1   
    58    17    82 1   
    59    17    83 1   
    60    18    19 1   
    61    18    20 1   
    62    18    39 1   
    63    18    84 1   
    64    19    21 1   
    65    19    40 1   
    66    19    85 1   
    67    20    24 1   
    68    20    41 1   
    69    20    86 1   
    70    21    29 1   
    71    21    38 1   
    72    21    87 1   
    73    22    36 1   
    74    22    88 1   
    75    23    89 1   
    76    23    90 1   
    77    23    91 1   
    78    24    38 1   
    79    24    92 1   
    80    25    28 1   
    81    25    93 1   
    82    25    94 1   
    83    26    27 1   
    84    26    95 1   
    85    26    96 1   
    86    27    30 1   
    87    27    97 1   
    88    27    98 1   
    89    28    42 1   
    90    28    99 1   
    91    28   100 1   
    92    29    43 1   
    93    29   101 1   
    94    29   102 1   
    95    30    31 1   
    96    30   103 1   
    97    30   104 1   
    98    31    32 1   
    99    31   105 1   
   100    31   106 1   
   101    32   107 1   
   102    32   108 1   
   103    32   109 1   
   104    33    37 1   
   105    33   110 1   
   106    33   111 1   
   107    34   112 1   
   108    34   113 1   
   109    34   126 1   
   110    35   114 1   
   111    36    37 1   
   112    36   115 1   
   113    36   116 1   
   114    37   117 1   
   115    37   118 1   
   116    39   121 1   
   117    40   122 1   
   118    41   123 1   
   119    42    46 1   
   120    43   124 1   
   121    44    46 1   
   122    45    46 1   
   123    60   125 1   
   124    61   125 1   
   125   119   126 1   
   126   120   126 1   
@<TRIPOS>SUBSTRUCTURE
     1 ZQ4         1 TEMP              0 ****  ****    0 ROOT
