@<TRIPOS>MOLECULE
ZQ5
   41    42     1     0     0
SMALL
abcg2


@<TRIPOS>ATOM
      1 N1         -15.8020    17.0820    25.8940 ns         1 ZQ5      -0.511900
      2 N3         -19.2840    13.4720    25.8200 n          1 ZQ5      -0.410800
      3 C4         -14.8560    18.1440    26.2080 c3         1 ZQ5       0.107000
      4 C5         -16.4140    16.3640    26.8770 c          1 ZQ5       0.644100
      5 C6         -18.2890    14.9490    27.4940 c6         1 ZQ5       0.082000
      6 C7         -18.7480    13.5360    27.1750 c6         1 ZQ5       0.089000
      7 C8         -18.3010    13.8760    24.8250 c6         1 ZQ5       0.089000
      8 C10        -20.4830    12.9730    25.4330 c          1 ZQ5       0.647700
      9 C13        -23.0620    13.0420    28.1910 cc         1 ZQ5      -0.141000
     10 C1         -13.7130    20.4540    28.0350 c3         1 ZQ5      -0.091100
     11 C11        -21.5300    12.7640    26.4610 cd         1 ZQ5      -0.285600
     12 C12        -21.9180    13.5450    27.5210 cc         1 ZQ5      -0.100000
     13 C14        -23.5270    11.8820    27.6330 cd         1 ZQ5      -0.244000
     14 C2         -14.5400    20.6200    26.7590 c3         1 ZQ5      -0.069400
     15 C3         -15.5320    19.4830    26.5080 c3         1 ZQ5      -0.107400
     16 C9         -17.8160    15.2950    25.1060 c6         1 ZQ5       0.082000
     17 N2         -17.3500    15.4290    26.4830 n          1 ZQ5      -0.420800
     18 O1         -16.1130    16.5090    28.0690 o          1 ZQ5      -0.642100
     19 O2         -20.7360    12.7080    24.2510 o          1 ZQ5      -0.606100
     20 S1         -22.5950    11.4100    26.2740 ss         1 ZQ5       0.287000
     21 H10        -16.2290    17.1300    24.9850 hn         1 ZQ5       0.302500
     22 H9         -14.1890    18.2530    25.3490 h1         1 ZQ5       0.060200
     23 H8         -14.2560    17.8150    27.0530 h1         1 ZQ5       0.060200
     24 H12        -17.7930    14.9660    28.4600 h1         1 ZQ5       0.054200
     25 H11        -19.1620    15.6130    27.5420 h1         1 ZQ5       0.054200
     26 H14        -17.8910    12.8560    27.2300 h1         1 ZQ5       0.066950
     27 H13        -19.4880    13.2070    27.8950 h1         1 ZQ5       0.066950
     28 H15        -17.4540    13.1830    24.8550 h1         1 ZQ5       0.066950
     29 H16        -18.7530    13.8290    23.8390 h1         1 ZQ5       0.066950
     30 H20        -23.5190    13.5190    29.0460 ha         1 ZQ5       0.137000
     31 H2         -13.0710    21.3230    28.1990 hc         1 ZQ5       0.035033
     32 H1         -14.3630    20.3480    28.9070 hc         1 ZQ5       0.035033
     33 H3         -13.0700    19.5730    27.9910 hc         1 ZQ5       0.035033
     34 H19        -21.4200    14.4630    27.7980 ha         1 ZQ5       0.135000
     35 H21        -24.3650    11.2800    27.9480 h4         1 ZQ5       0.153000
     36 H4         -15.0970    21.5600    26.8150 hc         1 ZQ5       0.036700
     37 H5         -13.8720    20.7110    25.8960 hc         1 ZQ5       0.036700
     38 H6         -16.1860    19.3620    27.3770 hc         1 ZQ5       0.044700
     39 H7         -16.1730    19.7410    25.6600 hc         1 ZQ5       0.044700
     40 H18        -17.0000    15.4930    24.4150 h1         1 ZQ5       0.054200
     41 H17        -18.6280    16.0040    24.9010 h1         1 ZQ5       0.054200
@<TRIPOS>BOND
     1     1     3 1   
     2     1     4 1   
     3     1    21 1   
     4     2     6 1   
     5     2     7 1   
     6     2     8 1   
     7     3    15 1   
     8     3    22 1   
     9     3    23 1   
    10     4    17 1   
    11     4    18 2   
    12     5     6 1   
    13     5    17 1   
    14     5    24 1   
    15     5    25 1   
    16     6    26 1   
    17     6    27 1   
    18     7    16 1   
    19     7    28 1   
    20     7    29 1   
    21     8    11 1   
    22     8    19 2   
    23     9    12 1   
    24     9    13 2   
    25     9    30 1   
    26    10    14 1   
    27    10    31 1   
    28    10    32 1   
    29    10    33 1   
    30    11    12 2   
    31    11    20 1   
    32    12    34 1   
    33    13    20 1   
    34    13    35 1   
    35    14    15 1   
    36    14    36 1   
    37    14    37 1   
    38    15    38 1   
    39    15    39 1   
    40    16    17 1   
    41    16    40 1   
    42    16    41 1   
@<TRIPOS>SUBSTRUCTURE
     1 ZQ5         1 TEMP              0 ****  ****    0 ROOT
