@<TRIPOS>MOLECULE
ZQ5
   41    42     1     0     0
SMALL
No Charge or Current Charge


@<TRIPOS>ATOM
      1 N1         -15.7400    17.1270    26.0170 ns         1 ZQ5      -0.511900
      2 N3         -19.4830    13.5920    25.8230 n          1 ZQ5      -0.410800
      3 C4         -14.7900    18.2210    26.2310 c3         1 ZQ5       0.107000
      4 C5         -16.3520    16.4110    27.0190 c          1 ZQ5       0.644100
      5 C6         -18.1440    14.7690    27.6190 c6         1 ZQ5       0.082000
      6 C7         -18.8340    13.4670    27.1540 c6         1 ZQ5       0.089000
      7 C8         -18.4980    14.0310    24.8060 c6         1 ZQ5       0.089000
      8 C10        -20.5060    12.6930    25.4500 c          1 ZQ5       0.647700
      9 C13        -23.1840    13.0100    28.0870 cc         1 ZQ5      -0.141000
     10 C1         -13.5590    20.6440    27.8980 c3         1 ZQ5      -0.091100
     11 C11        -21.6520    12.5420    26.3850 cd         1 ZQ5      -0.285600
     12 C12        -21.9810    13.3730    27.4350 cc         1 ZQ5      -0.100000
     13 C14        -23.8000    11.9170    27.5380 cd         1 ZQ5      -0.244000
     14 C2         -14.5520    20.7560    26.7220 c3         1 ZQ5      -0.069400
     15 C3         -15.5030    19.5460    26.5770 c3         1 ZQ5      -0.107400
     16 C9         -17.7430    15.3310    25.1860 c6         1 ZQ5       0.082000
     17 N2         -17.2680    15.4230    26.6030 n          1 ZQ5      -0.420800
     18 O1         -16.1090    16.6160    28.1980 o          1 ZQ5      -0.642100
     19 O2         -20.4620    12.0870    24.3870 o          1 ZQ5      -0.606100
     20 S1         -22.8900    11.2950    26.1490 ss         1 ZQ5       0.287000
     21 H10        -15.9910    16.8880    25.0690 hn         1 ZQ5       0.302500
     22 H9         -14.1990    18.3530    25.3140 h1         1 ZQ5       0.060200
     23 H8         -14.1000    17.9420    27.0390 h1         1 ZQ5       0.060200
     24 H12        -17.5580    14.5430    28.5210 h1         1 ZQ5       0.054200
     25 H11        -18.9210    15.4890    27.9130 h1         1 ZQ5       0.054200
     26 H14        -18.0650    12.6840    27.0830 h1         1 ZQ5       0.066950
     27 H13        -19.5330    13.1260    27.9270 h1         1 ZQ5       0.066950
     28 H15        -17.7620    13.2250    24.6630 h1         1 ZQ5       0.066950
     29 H16        -19.0000    14.1840    23.8400 h1         1 ZQ5       0.066950
     30 H20        -23.5760    13.5690    28.9330 ha         1 ZQ5       0.137000
     31 H2         -12.9680    21.5630    27.9850 hc         1 ZQ5       0.035033
     32 H1         -14.0930    20.4900    28.8430 hc         1 ZQ5       0.035033
     33 H3         -12.8650    19.8090    27.7510 hc         1 ZQ5       0.035033
     34 H19        -21.4180    14.2520    27.7370 ha         1 ZQ5       0.135000
     35 H21        -24.7260    11.4420    27.8390 h4         1 ZQ5       0.153000
     36 H4         -15.1560    21.6610    26.8600 hc         1 ZQ5       0.036700
     37 H5         -13.9920    20.8930    25.7880 hc         1 ZQ5       0.036700
     38 H6         -16.0740    19.4220    27.5060 hc         1 ZQ5       0.044700
     39 H7         -16.2320    19.7690    25.7880 hc         1 ZQ5       0.044700
     40 H18        -16.8940    15.4310    24.4970 h1         1 ZQ5       0.054200
     41 H17        -18.4140    16.1830    25.0010 h1         1 ZQ5       0.054200
@<TRIPOS>BOND
     1     1     3 1   
     2     1     4 1   
     3     1    21 1   
     4     2     6 1   
     5     2     7 1   
     6     2     8 1   
     7     3    15 1   
     8     3    22 1   
     9     3    23 1   
    10     4    17 1   
    11     4    18 2   
    12     5     6 1   
    13     5    17 1   
    14     5    24 1   
    15     5    25 1   
    16     6    26 1   
    17     6    27 1   
    18     7    16 1   
    19     7    28 1   
    20     7    29 1   
    21     8    11 1   
    22     8    19 2   
    23     9    12 1   
    24     9    13 2   
    25     9    30 1   
    26    10    14 1   
    27    10    31 1   
    28    10    32 1   
    29    10    33 1   
    30    11    12 2   
    31    11    20 1   
    32    12    34 1   
    33    13    20 1   
    34    13    35 1   
    35    14    15 1   
    36    14    36 1   
    37    14    37 1   
    38    15    38 1   
    39    15    39 1   
    40    16    17 1   
    41    16    40 1   
    42    16    41 1   
@<TRIPOS>SUBSTRUCTURE
     1 ZQ5         1 TEMP              0 ****  ****    0 ROOT
