@<TRIPOS>MOLECULE
ZQ6
   63    66     1     0     0
SMALL
abcg2


@<TRIPOS>ATOM
      1 C13        129.1510   109.3590    98.0640 cc         1 ZQ6       0.690900
      2 C15        128.9730   108.6520   100.4390 c3         1 ZQ6       0.233800
      3 C17        130.4750   109.6240   102.2490 c6         1 ZQ6      -0.069400
      4 C20        128.4290   111.6800   102.8330 c6         1 ZQ6       0.118800
      5 C21        128.5120   110.9450   101.4800 c6         1 ZQ6       0.175300
      6 C24        127.4150   109.2370    96.6100 cd         1 ZQ6       0.473500
      7 C26        126.3210   109.4490    94.7130 cc         1 ZQ6       0.412500
      8 C01        135.2830   112.3000    95.9380 c3         1 ZQ6       0.148900
      9 C03        132.9550   112.7770    95.8710 ca         1 ZQ6       0.143100
     10 C04        133.1190   113.9940    96.5250 ca         1 ZQ6      -0.196000
     11 C05        132.0100   114.7880    96.7950 ca         1 ZQ6      -0.070000
     12 C06        130.7450   114.3780    96.4140 ca         1 ZQ6      -0.143000
     13 C07        130.5900   113.1580    95.7640 ca         1 ZQ6      -0.062000
     14 C08        131.6760   112.3430    95.4910 ca         1 ZQ6      -0.151300
     15 C09        131.5260   111.0080    94.7900 c3         1 ZQ6       0.288100
     16 C11        129.5110   110.0600    95.7830 cd         1 ZQ6       0.420000
     17 C12        130.0080   109.8760    97.0490 cc         1 ZQ6      -0.386000
     18 C16        129.0450   109.5340   101.6870 c6         1 ZQ6      -0.067700
     19 C18        130.6680   110.8620   103.1290 c6         1 ZQ6       0.159800
     20 C25        126.1560   109.0460    96.0440 cc         1 ZQ6      -0.326800
     21 C29        124.9120   108.5460    96.7140 c3         1 ZQ6       0.042500
     22 C30        124.4580   109.4860    97.8310 c3         1 ZQ6      -0.085600
     23 C31        125.0760   107.1170    97.2340 c3         1 ZQ6      -0.085600
     24 N10        130.1720   110.5300    94.7170 nu         1 ZQ6      -0.966200
     25 N14        129.6680   109.2030    99.3010 nu         1 ZQ6      -0.934100
     26 N19        129.4110   111.1720   103.7800 n7         1 ZQ6      -0.860400
     27 N23        127.8880   109.0360    97.8470 nd         1 ZQ6      -0.778000
     28 N27        127.5450   109.8620    94.4260 nd         1 ZQ6      -0.633100
     29 N28        128.2000   109.7280    95.5910 na         1 ZQ6       0.041900
     30 O22        127.2460   110.8900   100.8600 oh         1 ZQ6      -0.645000
     31 H1         127.9380   108.4880   100.1520 h1         1 ZQ6       0.066200
     32 H2         129.3910   107.6700   100.6890 h1         1 ZQ6       0.066200
     33 H3         130.6850   108.7160   102.8180 hc         1 ZQ6       0.038700
     34 H4         131.2110   109.6580   101.4410 hc         1 ZQ6       0.038700
     35 H5         128.5320   112.7610   102.6540 h1         1 ZQ6       0.036700
     36 H6         127.4260   111.5160   103.2400 h1         1 ZQ6       0.036700
     37 H7         129.2210   111.4770   100.8290 h1         1 ZQ6       0.028700
     38 H8         125.5640   109.4510    93.9400 h4         1 ZQ6       0.037800
     39 H9         135.9290   111.4910    95.6060 h1         1 ZQ6       0.041700
     40 H10        135.6090   113.2280    95.4610 h1         1 ZQ6       0.041700
     41 H11        135.3810   112.4080    97.0210 h1         1 ZQ6       0.041700
     42 H12        134.0990   114.3380    96.8280 ha         1 ZQ6       0.118000
     43 H13        132.1490   115.7320    97.3060 ha         1 ZQ6       0.113000
     44 H14        129.8810   114.9950    96.6210 ha         1 ZQ6       0.119000
     45 H15        129.5990   112.8380    95.4680 ha         1 ZQ6       0.123000
     46 H16        132.1470   110.2540    95.2810 h1         1 ZQ6       0.068700
     47 H17        131.8980   111.0770    93.7670 h1         1 ZQ6       0.068700
     48 H18        131.0280   110.1430    97.2820 ha         1 ZQ6       0.135000
     49 H19        128.4150   109.0410   102.4370 hc         1 ZQ6       0.079700
     50 H20        131.4250   110.6670   103.8900 h1         1 ZQ6       0.028700
     51 H21        131.0510   111.6980   102.5220 h1         1 ZQ6       0.028700
     52 H22        124.1260   108.5310    95.9520 hc         1 ZQ6       0.034700
     53 H23        123.5330   109.1310    98.2890 hc         1 ZQ6       0.033367
     54 H24        125.2120   109.5580    98.6170 hc         1 ZQ6       0.033367
     55 H25        124.2770   110.4920    97.4510 hc         1 ZQ6       0.033367
     56 H26        124.1440   106.7540    97.6700 hc         1 ZQ6       0.033367
     57 H27        125.3610   106.4340    96.4330 hc         1 ZQ6       0.033367
     58 H28        125.8460   107.0660    98.0060 hc         1 ZQ6       0.033367
     59 H29        129.6380   110.6820    93.8750 hn         1 ZQ6       0.528000
     60 H30        130.6570   109.3640    99.3950 hn         1 ZQ6       0.483000
     61 H31        129.5520   111.8460   104.5200 hn         1 ZQ6       0.415000
     62 H33        126.9870   111.7840   100.6160 ho         1 ZQ6       0.442000
     63 O02        133.9700   111.9450    95.5590 os         1 ZQ6      -0.351100
@<TRIPOS>BOND
     1     1    17 1   
     2     1    25 1   
     3     1    27 2   
     4     2    18 1   
     5     2    25 1   
     6     2    31 1   
     7     2    32 1   
     8     3    18 1   
     9     3    19 1   
    10     3    33 1   
    11     3    34 1   
    12     4     5 1   
    13     4    26 1   
    14     4    35 1   
    15     4    36 1   
    16     5    18 1   
    17     5    30 1   
    18     5    37 1   
    19     6    20 2   
    20     6    27 1   
    21     6    29 1   
    22     7    20 1   
    23     7    28 2   
    24     7    38 1   
    25     8    39 1   
    26     8    40 1   
    27     8    41 1   
    28     8    63 1   
    29     9    10 ar  
    30     9    14 ar  
    31     9    63 1   
    32    10    11 ar  
    33    10    42 1   
    34    11    12 ar  
    35    11    43 1   
    36    12    13 ar  
    37    12    44 1   
    38    13    14 ar  
    39    13    45 1   
    40    14    15 1   
    41    15    24 1   
    42    15    46 1   
    43    15    47 1   
    44    16    17 2   
    45    16    24 1   
    46    16    29 1   
    47    17    48 1   
    48    18    49 1   
    49    19    26 1   
    50    19    50 1   
    51    19    51 1   
    52    20    21 1   
    53    21    22 1   
    54    21    23 1   
    55    21    52 1   
    56    22    53 1   
    57    22    54 1   
    58    22    55 1   
    59    23    56 1   
    60    23    57 1   
    61    23    58 1   
    62    24    59 1   
    63    25    60 1   
    64    26    61 1   
    65    28    29 1   
    66    30    62 1   
@<TRIPOS>SUBSTRUCTURE
     1 ZQ6         1 TEMP              0 ****  ****    0 ROOT
