@<TRIPOS>MOLECULE
ZQ6
   63    66     1     0     0
SMALL
No Charge or Current Charge


@<TRIPOS>ATOM
      1 C13        129.2940   108.8600    97.7730 cc         1 ZQ6       0.690900
      2 C15        129.4850   108.4350   100.2500 c3         1 ZQ6       0.233800
      3 C17        131.1280   110.3780   100.8470 c6         1 ZQ6      -0.069400
      4 C20        129.0900   112.3270   100.9430 c6         1 ZQ6       0.118800
      5 C21        128.6280   110.8740   100.5640 c6         1 ZQ6       0.175300
      6 C24        127.5050   109.1690    96.5890 cd         1 ZQ6       0.473500
      7 C26        126.1570   109.8240    94.9850 cc         1 ZQ6       0.412500
      8 C01        134.2180   111.2440    98.1860 c3         1 ZQ6       0.148900
      9 C03        132.2630   112.3450    97.1400 ca         1 ZQ6       0.143100
     10 C04        132.1330   113.2540    98.2150 ca         1 ZQ6      -0.196000
     11 C05        131.1150   114.2210    98.2080 ca         1 ZQ6      -0.070000
     12 C06        130.2210   114.2890    97.1290 ca         1 ZQ6      -0.143000
     13 C07        130.3450   113.3930    96.0560 ca         1 ZQ6      -0.062000
     14 C08        131.3610   112.4120    96.0520 ca         1 ZQ6      -0.151300
     15 C09        131.4640   111.4460    94.8690 c3         1 ZQ6       0.288100
     16 C11        129.5200   110.0230    95.6440 cd         1 ZQ6       0.420000
     17 C12        130.0900   109.5050    96.7820 cc         1 ZQ6      -0.386000
     18 C16        129.6870   109.8020   100.9770 c6         1 ZQ6      -0.067700
     19 C18        131.3380   111.6340   101.7440 c6         1 ZQ6       0.159800
     20 C25        126.1880   109.1540    96.2440 cc         1 ZQ6      -0.326800
     21 C29        124.9660   108.6070    96.9440 c3         1 ZQ6       0.042500
     22 C30        124.7010   109.3170    98.2880 c3         1 ZQ6      -0.085600
     23 C31        125.0250   107.0730    97.0990 c3         1 ZQ6      -0.085600
     24 N10        130.2000   110.7130    94.6750 nu         1 ZQ6      -0.966200
     25 N14        129.9850   108.4450    98.8590 nu         1 ZQ6      -0.934100
     26 N19        130.0760   112.3560   102.0570 n7         1 ZQ6      -0.860400
     27 N23        127.9980   108.6430    97.7620 nd         1 ZQ6      -0.778000
     28 N27        127.3280   110.2560    94.5190 nd         1 ZQ6      -0.633100
     29 N28        128.1440   109.8140    95.5550 na         1 ZQ6       0.041900
     30 O22        127.3630   110.5650   101.1770 oh         1 ZQ6      -0.645000
     31 H1         128.4230   108.1570   100.2930 h1         1 ZQ6       0.066200
     32 H2         130.0330   107.6700   100.8180 h1         1 ZQ6       0.066200
     33 H3         131.8760   109.6150   101.1030 hc         1 ZQ6       0.038700
     34 H4         131.3160   110.6590    99.8020 hc         1 ZQ6       0.038700
     35 H5         129.5490   112.7910   100.0580 h1         1 ZQ6       0.036700
     36 H6         128.2170   112.9420   101.2080 h1         1 ZQ6       0.036700
     37 H7         128.5110   110.8580    99.4710 h1         1 ZQ6       0.028700
     38 H8         125.2760   110.0140    94.3870 h4         1 ZQ6       0.037800
     39 H9         134.9110   110.4230    97.9650 h1         1 ZQ6       0.041700
     40 H10        134.8080   112.1630    98.3040 h1         1 ZQ6       0.041700
     41 H11        133.7180   111.0200    99.1360 h1         1 ZQ6       0.041700
     42 H12        132.8110   113.2290    99.0620 ha         1 ZQ6       0.118000
     43 H13        131.0190   114.9180    99.0380 ha         1 ZQ6       0.113000
     44 H14        129.4330   115.0380    97.1230 ha         1 ZQ6       0.119000
     45 H15        129.6460   113.4570    95.2250 ha         1 ZQ6       0.123000
     46 H16        132.2860   110.7320    95.0150 h1         1 ZQ6       0.068700
     47 H17        131.7050   112.0240    93.9650 h1         1 ZQ6       0.068700
     48 H18        131.1530   109.6050    96.9500 ha         1 ZQ6       0.135000
     49 H19        129.5260   109.5770   102.0410 hc         1 ZQ6       0.079700
     50 H20        131.8110   111.3360   102.6910 h1         1 ZQ6       0.028700
     51 H21        132.0340   112.3160   101.2350 h1         1 ZQ6       0.028700
     52 H22        124.0970   108.8180    96.3070 hc         1 ZQ6       0.034700
     53 H23        123.7540   108.9760    98.7250 hc         1 ZQ6       0.033367
     54 H24        125.5010   109.1120    99.0090 hc         1 ZQ6       0.033367
     55 H25        124.6370   110.4020    98.1440 hc         1 ZQ6       0.033367
     56 H26        124.0870   106.6910    97.5200 hc         1 ZQ6       0.033367
     57 H27        125.1810   106.5930    96.1250 hc         1 ZQ6       0.033367
     58 H28        125.8440   106.7740    97.7640 hc         1 ZQ6       0.033367
     59 H29        129.5740   111.0460    93.9370 hn         1 ZQ6       0.528000
     60 H30        130.9830   108.5750    98.7420 hn         1 ZQ6       0.483000
     61 H31        130.2990   113.3280   102.3070 hn         1 ZQ6       0.415000
     62 H33        126.7310   111.2550   100.8820 ho         1 ZQ6       0.442000
     63 O02        133.2590   111.3860    97.1220 os         1 ZQ6      -0.351100
@<TRIPOS>BOND
     1     1    17 1   
     2     1    25 1   
     3     1    27 2   
     4     2    18 1   
     5     2    25 1   
     6     2    31 1   
     7     2    32 1   
     8     3    18 1   
     9     3    19 1   
    10     3    33 1   
    11     3    34 1   
    12     4     5 1   
    13     4    26 1   
    14     4    35 1   
    15     4    36 1   
    16     5    18 1   
    17     5    30 1   
    18     5    37 1   
    19     6    20 2   
    20     6    27 1   
    21     6    29 1   
    22     7    20 1   
    23     7    28 2   
    24     7    38 1   
    25     8    39 1   
    26     8    40 1   
    27     8    41 1   
    28     8    63 1   
    29     9    10 ar  
    30     9    14 ar  
    31     9    63 1   
    32    10    11 ar  
    33    10    42 1   
    34    11    12 ar  
    35    11    43 1   
    36    12    13 ar  
    37    12    44 1   
    38    13    14 ar  
    39    13    45 1   
    40    14    15 1   
    41    15    24 1   
    42    15    46 1   
    43    15    47 1   
    44    16    17 2   
    45    16    24 1   
    46    16    29 1   
    47    17    48 1   
    48    18    49 1   
    49    19    26 1   
    50    19    50 1   
    51    19    51 1   
    52    20    21 1   
    53    21    22 1   
    54    21    23 1   
    55    21    52 1   
    56    22    53 1   
    57    22    54 1   
    58    22    55 1   
    59    23    56 1   
    60    23    57 1   
    61    23    58 1   
    62    24    59 1   
    63    25    60 1   
    64    26    61 1   
    65    28    29 1   
    66    30    62 1   
@<TRIPOS>SUBSTRUCTURE
     1 ZQ6         1 TEMP              0 ****  ****    0 ROOT
