@<TRIPOS>MOLECULE
ZQ9
   39    41     1     0     0
SMALL
No Charge or Current Charge


@<TRIPOS>ATOM
      1 N1         -16.8260    17.7670    26.8000 ns         1 ZQ9      -0.508900
      2 N3         -19.9420    13.7750    25.8700 n          1 ZQ9      -0.410800
      3 C4         -15.6200    20.1320    25.0360 cc         1 ZQ9      -0.129000
      4 C5         -15.8960    21.3830    24.4340 cc         1 ZQ9      -0.128000
      5 C6         -16.5710    22.2510    25.2520 cd         1 ZQ9      -0.228000
      6 C7         -18.7510    16.0160    25.7320 c6         1 ZQ9       0.086500
      7 C8         -19.4220    14.8390    24.9780 c6         1 ZQ9       0.088000
      8 C10        -18.2330    14.4170    27.6220 c6         1 ZQ9       0.086500
      9 C13        -21.7010    12.2490    27.7320 cc         1 ZQ9      -0.100000
     10 C15        -23.1840    10.4570    27.5630 cd         1 ZQ9      -0.244000
     11 C1         -16.9670    16.5710    27.4530 c          1 ZQ9       0.647100
     12 C11        -20.9140    12.8780    25.3730 c          1 ZQ9       0.646700
     13 C12        -21.6470    12.0520    26.3690 cd         1 ZQ9      -0.286600
     14 C14        -22.5580    11.3420    28.4000 cc         1 ZQ9      -0.141000
     15 C2         -15.9690    18.8540    27.2530 c3         1 ZQ9       0.184300
     16 C3         -16.0820    20.0290    26.3230 cd         1 ZQ9      -0.228300
     17 C9         -18.8720    13.2900    26.7790 c6         1 ZQ9       0.088000
     18 N2         -17.8410    15.6380    26.8600 n          1 ZQ9      -0.425800
     19 O1         -16.3630    16.3330    28.4870 o          1 ZQ9      -0.633100
     20 O2         -21.1580    12.8060    24.1760 o          1 ZQ9      -0.604100
     21 S1         -16.8930    21.5220    26.8360 ss         1 ZQ9       0.179000
     22 S2         -22.7280    10.7380    25.8720 ss         1 ZQ9       0.288000
     23 H1         -17.3500    17.8970    25.9480 hn         1 ZQ9       0.306500
     24 H4         -15.0910    19.3400    24.5130 ha         1 ZQ9       0.127000
     25 H5         -15.5930    21.6160    23.4160 ha         1 ZQ9       0.134000
     26 H6         -16.9000    23.2610    25.0370 h4         1 ZQ9       0.151000
     27 H7         -19.5440    16.6580    26.1410 h1         1 ZQ9       0.055950
     28 H8         -18.2030    16.6120    24.9890 h1         1 ZQ9       0.055950
     29 H10        -20.2370    15.2380    24.3560 h1         1 ZQ9       0.066450
     30 H9         -18.6850    14.3920    24.2950 h1         1 ZQ9       0.066450
     31 H14        -18.9480    14.7160    28.4010 h1         1 ZQ9       0.055950
     32 H13        -17.3530    14.0040    28.1360 h1         1 ZQ9       0.055950
     33 H17        -23.8860     9.6720    27.8150 h4         1 ZQ9       0.153000
     34 H16        -22.7060    11.3710    29.4770 ha         1 ZQ9       0.138000
     35 H2         -16.2630    19.1480    28.2690 h1         1 ZQ9       0.070700
     36 H3         -14.9270    18.5050    27.2820 h1         1 ZQ9       0.070700
     37 H11        -19.2200    12.4890    27.4410 h1         1 ZQ9       0.066450
     38 H12        -18.0810    12.8420    26.1600 h1         1 ZQ9       0.066450
     39 H15        -21.1830    13.0370    28.2710 ha         1 ZQ9       0.135000
@<TRIPOS>BOND
     1     1    11 1   
     2     1    15 1   
     3     1    23 1   
     4     2     7 1   
     5     2    12 1   
     6     2    17 1   
     7     3     4 1   
     8     3    16 2   
     9     3    24 1   
    10     4     5 2   
    11     4    25 1   
    12     5    21 1   
    13     5    26 1   
    14     6     7 1   
    15     6    18 1   
    16     6    27 1   
    17     6    28 1   
    18     7    29 1   
    19     7    30 1   
    20     8    17 1   
    21     8    18 1   
    22     8    31 1   
    23     8    32 1   
    24     9    13 2   
    25     9    14 1   
    26     9    39 1   
    27    10    14 2   
    28    10    22 1   
    29    10    33 1   
    30    11    18 1   
    31    11    19 2   
    32    12    13 1   
    33    12    20 2   
    34    13    22 1   
    35    14    34 1   
    36    15    16 1   
    37    15    35 1   
    38    15    36 1   
    39    16    21 1   
    40    17    37 1   
    41    17    38 1   
@<TRIPOS>SUBSTRUCTURE
     1 ZQ9         1 TEMP              0 ****  ****    0 ROOT
