@<TRIPOS>MOLECULE
ZQ9
   39    41     1     0     0
SMALL
abcg2


@<TRIPOS>ATOM
      1 N1         -16.1100    17.2440    25.9360 ns         1 ZQ9      -0.508900
      2 N3         -19.2440    13.3320    25.9160 n          1 ZQ9      -0.410800
      3 C4         -17.3990    19.8950    26.0430 cc         1 ZQ9      -0.129000
      4 C5         -17.7970    21.2550    26.2130 cc         1 ZQ9      -0.128000
      5 C6         -16.7730    22.0580    26.6170 cd         1 ZQ9      -0.228000
      6 C7         -17.8970    15.2220    25.1360 c6         1 ZQ9       0.086500
      7 C8         -18.1820    13.7280    25.0020 c6         1 ZQ9       0.088000
      8 C10        -18.6730    15.1320    27.4680 c6         1 ZQ9       0.086500
      9 C13        -22.0830    13.2290    27.2170 cc         1 ZQ9      -0.100000
     10 C15        -23.4390    11.3630    27.4320 cd         1 ZQ9      -0.244000
     11 C1         -16.8320    16.6200    26.9160 c          1 ZQ9       0.647100
     12 C11        -20.2790    12.5770    25.4720 c          1 ZQ9       0.646700
     13 C12        -21.4330    12.3610    26.3760 cd         1 ZQ9      -0.286600
     14 C14        -23.2330    12.6590    27.8210 cc         1 ZQ9      -0.141000
     15 C2         -15.2940    18.3980    26.2440 c3         1 ZQ9       0.184300
     16 C3         -16.0790    19.6820    26.3210 cd         1 ZQ9      -0.228300
     17 C9         -18.9210    13.6420    27.3050 c6         1 ZQ9       0.088000
     18 N2         -17.6510    15.5880    26.5270 n          1 ZQ9      -0.425800
     19 O1         -16.7160    16.9470    28.1030 o          1 ZQ9      -0.633100
     20 O2         -20.3000    12.0920    24.3340 o          1 ZQ9      -0.604100
     21 S1         -15.3100    21.1610    26.7980 ss         1 ZQ9       0.179000
     22 S2         -22.2540    10.8380    26.3110 ss         1 ZQ9       0.288000
     23 H1         -16.3840    17.1390    24.9740 hn         1 ZQ9       0.306500
     24 H4         -18.0690    19.1070    25.7300 ha         1 ZQ9       0.127000
     25 H5         -18.8020    21.6140    26.0400 ha         1 ZQ9       0.134000
     26 H6         -16.7870    23.1170    26.8230 h4         1 ZQ9       0.151000
     27 H7         -18.7430    15.7930    24.7340 h1         1 ZQ9       0.055950
     28 H8         -17.0190    15.4310    24.5310 h1         1 ZQ9       0.055950
     29 H10        -18.4870    13.5030    23.9850 h1         1 ZQ9       0.066450
     30 H9         -17.2770    13.1570    25.2310 h1         1 ZQ9       0.066450
     31 H14        -19.6080    15.6780    27.2940 h1         1 ZQ9       0.055950
     32 H13        -18.3310    15.3420    28.4760 h1         1 ZQ9       0.055950
     33 H17        -24.2220    10.6900    27.7440 h4         1 ZQ9       0.153000
     34 H16        -23.8780    13.1860    28.5090 ha         1 ZQ9       0.138000
     35 H2         -14.7780    18.2170    27.1860 h1         1 ZQ9       0.070700
     36 H3         -14.5280    18.4790    25.4690 h1         1 ZQ9       0.070700
     37 H11        -19.7170    13.3180    27.9640 h1         1 ZQ9       0.066450
     38 H12        -18.0120    13.0920    27.5710 h1         1 ZQ9       0.066450
     39 H15        -21.7650    14.2490    27.3800 ha         1 ZQ9       0.135000
@<TRIPOS>BOND
     1     1    11 1   
     2     1    15 1   
     3     1    23 1   
     4     2     7 1   
     5     2    12 1   
     6     2    17 1   
     7     3     4 1   
     8     3    16 2   
     9     3    24 1   
    10     4     5 2   
    11     4    25 1   
    12     5    21 1   
    13     5    26 1   
    14     6     7 1   
    15     6    18 1   
    16     6    27 1   
    17     6    28 1   
    18     7    29 1   
    19     7    30 1   
    20     8    17 1   
    21     8    18 1   
    22     8    31 1   
    23     8    32 1   
    24     9    13 2   
    25     9    14 1   
    26     9    39 1   
    27    10    14 2   
    28    10    22 1   
    29    10    33 1   
    30    11    18 1   
    31    11    19 2   
    32    12    13 1   
    33    12    20 2   
    34    13    22 1   
    35    14    34 1   
    36    15    16 1   
    37    15    35 1   
    38    15    36 1   
    39    16    21 1   
    40    17    37 1   
    41    17    38 1   
@<TRIPOS>SUBSTRUCTURE
     1 ZQ9         1 TEMP              0 ****  ****    0 ROOT
