@<TRIPOS>MOLECULE
ZQA
   21    22     1     0     0
SMALL
abcg2


@<TRIPOS>ATOM
      1 N12         62.7640   -51.1930    26.1770 na         1 ZQA      -0.267500
      2 C01         66.4030   -52.2820    20.6960 c3         1 ZQA      -0.090100
      3 C03         64.7760   -51.4500    22.4540 cc         1 ZQA       0.308300
      4 C04         64.2920   -50.4580    21.6570 cd         1 ZQA      -0.276000
      5 S05         63.0950   -49.5520    22.4900 ss         1 ZQA       0.001600
      6 C06         63.3220   -50.5720    23.8660 cd         1 ZQA       0.518900
      7 N07         64.2160   -51.4990    23.7020 nc         1 ZQA      -0.675000
      8 C08         62.5720   -50.3970    25.0830 cd         1 ZQA      -0.266500
      9 C09         61.5850   -49.5160    25.4560 cc         1 ZQA       0.262900
     10 N10         61.1880   -49.7660    26.7310 nc         1 ZQA      -0.673000
     11 C11         61.9170   -50.7800    27.1330 cd         1 ZQA       0.400400
     12 H1          63.4220   -51.9560    26.2410 hn         1 ZQA       0.372000
     13 H2          67.1590   -53.0420    20.5050 hc         1 ZQA       0.036700
     14 H3          65.6350   -52.3830    19.9270 hc         1 ZQA       0.036700
     15 H4          66.8750   -51.3070    20.5720 hc         1 ZQA       0.036700
     16 H5          65.3990   -53.4530    22.1980 hc         1 ZQA       0.058700
     17 H6          66.6280   -52.3930    22.8330 hc         1 ZQA       0.058700
     18 H7          64.5660   -50.2140    20.6440 h4         1 ZQA       0.163000
     19 H8          61.1500   -48.7240    24.8650 h4         1 ZQA       0.041100
     20 H10         61.8710   -51.2510    28.1030 h5         1 ZQA       0.058100
     21 C02         65.8260   -52.4510    22.0910 c3         1 ZQA      -0.106700
@<TRIPOS>BOND
     1     1     8 1   
     2     1    11 1   
     3     1    12 1   
     4     2    13 1   
     5     2    14 1   
     6     2    15 1   
     7     2    21 1   
     8     3     4 2   
     9     3     7 1   
    10     3    21 1   
    11     4     5 1   
    12     4    18 1   
    13     5     6 1   
    14     6     7 2   
    15     6     8 1   
    16     8     9 2   
    17     9    10 1   
    18     9    19 1   
    19    10    11 2   
    20    11    20 1   
    21    16    21 1   
    22    17    21 1   
@<TRIPOS>SUBSTRUCTURE
     1 ZQA         1 TEMP              0 ****  ****    0 ROOT
