@<TRIPOS>MOLECULE
ZQA
   21    22     1     0     0
SMALL
No Charge or Current Charge


@<TRIPOS>ATOM
      1 N12         62.7470   -51.2500    26.2610 na         1 ZQA      -0.267500
      2 C01         66.4090   -52.2800    20.6460 c3         1 ZQA      -0.090100
      3 C03         64.7780   -51.4420    22.4570 cc         1 ZQA       0.308300
      4 C04         64.2730   -50.4360    21.6660 cd         1 ZQA      -0.276000
      5 S05         63.0440   -49.5190    22.5160 ss         1 ZQA       0.001600
      6 C06         63.3240   -50.5900    23.8850 cd         1 ZQA       0.518900
      7 N07         64.2420   -51.5320    23.7150 nc         1 ZQA      -0.675000
      8 C08         62.6100   -50.4690    25.1240 cd         1 ZQA      -0.266500
      9 C09         61.6530   -49.5380    25.3950 cc         1 ZQA       0.262900
     10 N10         61.1860   -49.7150    26.6710 nc         1 ZQA      -0.673000
     11 C11         61.8510   -50.7500    27.1870 cd         1 ZQA       0.400400
     12 H1          63.3740   -52.0350    26.4010 hn         1 ZQA       0.372000
     13 H2          67.1760   -53.0400    20.4520 hc         1 ZQA       0.036700
     14 H3          65.6140   -52.4010    19.8990 hc         1 ZQA       0.036700
     15 H4          66.8660   -51.2920    20.5130 hc         1 ZQA       0.036700
     16 H5          65.4440   -53.4520    22.1810 hc         1 ZQA       0.058700
     17 H6          66.6780   -52.3590    22.7860 hc         1 ZQA       0.058700
     18 H7          64.5450   -50.1820    20.6500 h4         1 ZQA       0.163000
     19 H8          61.2620   -48.7480    24.7650 h4         1 ZQA       0.041100
     20 H10         61.7400   -51.1720    28.1790 h5         1 ZQA       0.058100
     21 C02         65.8460   -52.4370    22.0750 c3         1 ZQA      -0.106700
@<TRIPOS>BOND
     1     1     8 1   
     2     1    11 1   
     3     1    12 1   
     4     2    13 1   
     5     2    14 1   
     6     2    15 1   
     7     2    21 1   
     8     3     4 2   
     9     3     7 1   
    10     3    21 1   
    11     4     5 1   
    12     4    18 1   
    13     5     6 1   
    14     6     7 2   
    15     6     8 1   
    16     8     9 2   
    17     9    10 1   
    18     9    19 1   
    19    10    11 2   
    20    11    20 1   
    21    16    21 1   
    22    17    21 1   
@<TRIPOS>SUBSTRUCTURE
     1 ZQA         1 TEMP              0 ****  ****    0 ROOT
