@<TRIPOS>MOLECULE
ZQB
   60    63     1     0     0
SMALL
abcg2


@<TRIPOS>ATOM
      1 C11         37.1640     1.5390    43.5610 c3         1 ZQB      -0.044400
      2 C13         37.3140     1.9580    46.1270 cx         1 ZQB      -0.128400
      3 C15         35.8280    -1.6210    42.1970 c          1 ZQB       0.623300
      4 C16         36.4260    -2.9280    41.8810 cc         1 ZQB      -0.141300
      5 C17         36.3630    -4.9800    40.9960 ca         1 ZQB      -0.025200
      6 C18         37.7160    -4.6980    41.3390 ca         1 ZQB      -0.111800
      7 C19         37.7240    -3.3860    41.9030 cd         1 ZQB      -0.196200
      8 C21         37.0100    -7.1020    40.1060 ca         1 ZQB      -0.078000
      9 C22         38.3500    -6.8300    40.4480 ca         1 ZQB      -0.139000
     10 C23         38.7120    -5.6460    41.0600 ca         1 ZQB      -0.053000
     11 C14         35.9180     1.4590    45.8460 cx         1 ZQB      -0.128400
     12 C1          37.1340    -1.2760    37.8640 c6         1 ZQB      -0.074400
     13 C2          37.9630    -2.5220    38.1520 c6         1 ZQB      -0.094400
     14 C3          37.2800    -3.7500    37.5740 c6         1 ZQB       0.116000
     15 N1          35.8490    -3.7540    37.8700 ns         1 ZQB      -0.505900
     16 C4          35.0800    -2.7270    38.2700 c          1 ZQB       0.558000
     17 C5          35.7690    -1.3920    38.5420 c6         1 ZQB      -0.134700
     18 C6          34.8300    -0.2190    38.2500 c3         1 ZQB      -0.079400
     19 C7          35.2550     1.0850    38.9410 c3         1 ZQB       0.054400
     20 C8          34.3040     2.1950    38.5740 c2         1 ZQB       0.409200
     21 N2          35.2870     0.8990    40.3870 ns         1 ZQB      -0.509900
     22 C9          36.2760     1.3690    41.1750 c          1 ZQB       0.569100
     23 C10         36.2680     0.7720    42.5980 c3         1 ZQB       0.033700
     24 O2          37.1390     2.1510    40.7900 o          1 ZQB      -0.592100
     25 N4          36.6840    -0.6250    42.5010 ns         1 ZQB      -0.482900
     26 C12         37.0660     1.0250    44.9760 cx         1 ZQB      -0.130700
     27 O3          34.6030    -1.4580    42.1200 o          1 ZQB      -0.623100
     28 N5          35.6070    -3.9020    41.3480 na         1 ZQB      -0.175700
     29 C20         36.0190    -6.1830    40.3810 ca         1 ZQB       0.098000
     30 CL1         34.3540    -6.4910    39.9560 cl         1 ZQB      -0.194000
     31 H1          38.1970     1.4920    43.2060 hc         1 ZQB       0.065200
     32 H2          36.8700     2.5900    43.5280 hc         1 ZQB       0.065200
     33 H3          37.8290     1.5730    46.9980 hc         1 ZQB       0.072950
     34 H4          37.5340     2.9920    45.8940 hc         1 ZQB       0.072950
     35 H5          38.5880    -2.8530    42.2630 ha         1 ZQB       0.206000
     36 H6          36.7530    -8.0340    39.6230 ha         1 ZQB       0.130000
     37 H7          39.1020    -7.5720    40.2160 ha         1 ZQB       0.120000
     38 H8          39.7450    -5.4460    41.3130 ha         1 ZQB       0.121000
     39 H9          35.2100     2.1600    45.4220 hc         1 ZQB       0.072950
     40 H10         35.4860     0.7370    46.5260 hc         1 ZQB       0.072950
     41 H11         37.6480    -0.3850    38.2280 hc         1 ZQB       0.055700
     42 H12         37.0010    -1.1530    36.7840 hc         1 ZQB       0.055700
     43 H13         38.0800    -2.6380    39.2320 hc         1 ZQB       0.055200
     44 H14         38.9620    -2.4390    37.7210 hc         1 ZQB       0.055200
     45 H15         37.7100    -4.6640    37.9880 h1         1 ZQB       0.043700
     46 H16         37.4200    -3.7800    36.4890 h1         1 ZQB       0.043700
     47 H17         35.3530    -4.6230    37.7270 hn         1 ZQB       0.319500
     48 H18         35.9490    -1.4150    39.6200 hc         1 ZQB       0.061700
     49 H19         34.7850    -0.0370    37.1740 hc         1 ZQB       0.071200
     50 H20         33.8220    -0.4790    38.5760 hc         1 ZQB       0.071200
     51 H21         36.2540     1.3820    38.6260 h1         1 ZQB       0.096700
     52 H22         33.3150     2.1350    39.0410 h4         1 ZQB      -0.035200
     53 H23         34.6340     0.2440    40.8020 hn         1 ZQB       0.340500
     54 H24         35.2430     0.7730    42.9690 h1         1 ZQB       0.094700
     55 H25         33.8640     3.7640    37.6190 hn         1 ZQB       0.379400
     56 H26         37.6750    -0.8020    42.4200 hn         1 ZQB       0.324500
     57 H27         37.4030     0.0050    45.1140 hc         1 ZQB       0.078700
     58 H28         34.6230    -3.7710    41.1720 hn         1 ZQB       0.392000
     59 N3          34.6360     3.1140    37.7690 n2         1 ZQB      -0.733100
     60 O1          33.8680    -2.8780    38.4630 o          1 ZQB      -0.588000
@<TRIPOS>BOND
     1     1    23 1   
     2     1    26 1   
     3     1    31 1   
     4     1    32 1   
     5     2    11 1   
     6     2    26 1   
     7     2    33 1   
     8     2    34 1   
     9     3     4 1   
    10     3    25 1   
    11     3    27 2   
    12     4     7 2   
    13     4    28 1   
    14     5     6 ar  
    15     5    28 1   
    16     5    29 ar  
    17     6     7 1   
    18     6    10 ar  
    19     7    35 1   
    20     8     9 ar  
    21     8    29 ar  
    22     8    36 1   
    23     9    10 ar  
    24     9    37 1   
    25    10    38 1   
    26    11    26 1   
    27    11    39 1   
    28    11    40 1   
    29    12    13 1   
    30    12    17 1   
    31    12    41 1   
    32    12    42 1   
    33    13    14 1   
    34    13    43 1   
    35    13    44 1   
    36    14    15 1   
    37    14    45 1   
    38    14    46 1   
    39    15    16 1   
    40    15    47 1   
    41    16    17 1   
    42    16    60 2   
    43    17    18 1   
    44    17    48 1   
    45    18    19 1   
    46    18    49 1   
    47    18    50 1   
    48    19    20 1   
    49    19    21 1   
    50    19    51 1   
    51    20    52 1   
    52    20    59 2   
    53    21    22 1   
    54    21    53 1   
    55    22    23 1   
    56    22    24 2   
    57    23    25 1   
    58    23    54 1   
    59    25    56 1   
    60    26    57 1   
    61    28    58 1   
    62    29    30 1   
    63    55    59 1   
@<TRIPOS>SUBSTRUCTURE
     1 ZQB         1 TEMP              0 ****  ****    0 ROOT
