@<TRIPOS>MOLECULE
ZQB
   60    63     1     0     0
SMALL
No Charge or Current Charge


@<TRIPOS>ATOM
      1 C11         37.1780     1.5430    43.5250 c3         1 ZQB      -0.044400
      2 C13         37.6760     1.7440    46.1140 cx         1 ZQB      -0.128400
      3 C15         35.5490    -1.5760    42.1690 c          1 ZQB       0.623300
      4 C16         36.1380    -2.9180    41.9300 cc         1 ZQB      -0.141300
      5 C17         36.4110    -5.1360    41.3840 ca         1 ZQB      -0.025200
      6 C18         37.6650    -4.6510    41.6280 ca         1 ZQB      -0.111800
      7 C19         37.4900    -3.2640    41.9710 cd         1 ZQB      -0.196200
      8 C21         37.3390    -7.3030    40.8740 ca         1 ZQB      -0.078000
      9 C22         38.6370    -6.7940    41.1320 ca         1 ZQB      -0.139000
     10 C23         38.8130    -5.4450    41.5150 ca         1 ZQB      -0.053000
     11 C14         36.2460     1.2680    45.9840 cx         1 ZQB      -0.128400
     12 C1          37.0650    -1.3810    38.2770 c6         1 ZQB      -0.074400
     13 C2          37.6910    -2.7830    38.1670 c6         1 ZQB      -0.094400
     14 C3          37.2180    -3.4740    36.8740 c6         1 ZQB       0.116000
     15 N1          35.7660    -3.3570    36.6780 ns         1 ZQB      -0.505900
     16 C4          34.9110    -2.5930    37.4380 c          1 ZQB       0.558000
     17 C5          35.5120    -1.4710    38.3300 c6         1 ZQB      -0.134700
     18 C6          34.8260    -0.1000    37.9940 c3         1 ZQB      -0.079400
     19 C7          35.2910     1.1340    38.8160 c3         1 ZQB       0.054400
     20 C8          34.4360     2.3680    38.5310 c2         1 ZQB       0.409200
     21 N2          35.3370     0.8160    40.2540 ns         1 ZQB      -0.509900
     22 C9          35.9800     1.5630    41.2180 c          1 ZQB       0.569100
     23 C10         36.1350     0.8580    42.6040 c3         1 ZQB       0.033700
     24 O2          36.4580     2.6590    40.9580 o          1 ZQB      -0.592100
     25 N4          36.4620    -0.5800    42.4180 ns         1 ZQB      -0.482900
     26 C12         37.2590     0.9210    44.9180 cx         1 ZQB      -0.130700
     27 O3          34.3520    -1.3430    42.0850 o          1 ZQB      -0.623100
     28 N5          35.4850    -4.1190    41.5680 na         1 ZQB      -0.175700
     29 C20         36.2070    -6.4690    40.9990 ca         1 ZQB       0.098000
     30 Cl1         34.5910    -7.0860    40.6740 cl         1 ZQB      -0.194000
     31 H1          38.1650     1.5030    43.0470 hc         1 ZQB       0.065200
     32 H2          36.9230     2.6060    43.6140 hc         1 ZQB       0.065200
     33 H3          38.3030     1.2670    46.8640 hc         1 ZQB       0.072950
     34 H4          37.8720     2.8040    45.9660 hc         1 ZQB       0.072950
     35 H5          38.3110    -2.5910    42.2080 ha         1 ZQB       0.206000
     36 H6          37.2130    -8.3420    40.5780 ha         1 ZQB       0.130000
     37 H7          39.5030    -7.4440    41.0320 ha         1 ZQB       0.120000
     38 H8          39.8020    -5.0380    41.7100 ha         1 ZQB       0.121000
     39 H9          35.4860     2.0090    45.7470 hc         1 ZQB       0.072950
     40 H10         35.9140     0.4710    46.6450 hc         1 ZQB       0.072950
     41 H11         37.4480    -0.8680    39.1700 hc         1 ZQB       0.055700
     42 H12         37.3790    -0.7800    37.4110 hc         1 ZQB       0.055700
     43 H13         37.3990    -3.3880    39.0360 hc         1 ZQB       0.055200
     44 H14         38.7870    -2.7180    38.1800 hc         1 ZQB       0.055200
     45 H15         37.4950    -4.5380    36.8940 h1         1 ZQB       0.043700
     46 H16         37.7150    -3.0120    36.0090 h1         1 ZQB       0.043700
     47 H17         35.3170    -4.0410    36.0810 hn         1 ZQB       0.319500
     48 H18         35.1990    -1.7310    39.3480 hc         1 ZQB       0.061700
     49 H19         34.9690     0.1270    36.9290 hc         1 ZQB       0.071200
     50 H20         33.7420    -0.2030    38.1310 hc         1 ZQB       0.071200
     51 H21         36.3170     1.3720    38.5060 h1         1 ZQB       0.096700
     52 H22         33.6450     2.5990    39.2400 h4         1 ZQB      -0.035200
     53 H23         34.9260    -0.0560    40.5740 hn         1 ZQB       0.340500
     54 H24         35.1530     0.9260    43.0900 h1         1 ZQB       0.094700
     55 H25         33.9070     3.8790    37.5220 hn         1 ZQB       0.379400
     56 H26         37.4340    -0.8590    42.4530 hn         1 ZQB       0.324500
     57 H27         37.6100    -0.1090    44.8990 hc         1 ZQB       0.078700
     58 H28         34.4810    -4.2240    41.4490 hn         1 ZQB       0.392000
     59 N3          34.6020     3.1180    37.4980 n2         1 ZQB      -0.733100
     60 O1          33.7100    -2.8130    37.4000 o          1 ZQB      -0.588000
@<TRIPOS>BOND
     1     1    23 1   
     2     1    26 1   
     3     1    31 1   
     4     1    32 1   
     5     2    11 1   
     6     2    26 1   
     7     2    33 1   
     8     2    34 1   
     9     3     4 1   
    10     3    25 1   
    11     3    27 2   
    12     4     7 2   
    13     4    28 1   
    14     5     6 ar  
    15     5    28 1   
    16     5    29 ar  
    17     6     7 1   
    18     6    10 ar  
    19     7    35 1   
    20     8     9 ar  
    21     8    29 ar  
    22     8    36 1   
    23     9    10 ar  
    24     9    37 1   
    25    10    38 1   
    26    11    26 1   
    27    11    39 1   
    28    11    40 1   
    29    12    13 1   
    30    12    17 1   
    31    12    41 1   
    32    12    42 1   
    33    13    14 1   
    34    13    43 1   
    35    13    44 1   
    36    14    15 1   
    37    14    45 1   
    38    14    46 1   
    39    15    16 1   
    40    15    47 1   
    41    16    17 1   
    42    16    60 2   
    43    17    18 1   
    44    17    48 1   
    45    18    19 1   
    46    18    49 1   
    47    18    50 1   
    48    19    20 1   
    49    19    21 1   
    50    19    51 1   
    51    20    52 1   
    52    20    59 2   
    53    21    22 1   
    54    21    53 1   
    55    22    23 1   
    56    22    24 2   
    57    23    25 1   
    58    23    54 1   
    59    25    56 1   
    60    26    57 1   
    61    28    58 1   
    62    29    30 1   
    63    55    59 1   
@<TRIPOS>SUBSTRUCTURE
     1 ZQB         1 TEMP              0 ****  ****    0 ROOT
