@<TRIPOS>MOLECULE
ZQC
   35    37     1     0     0
SMALL
No Charge or Current Charge


@<TRIPOS>ATOM
      1 C10         -1.3250    -0.8570     0.0140 cc         1 ZQC       0.531300
      2 N12         -0.0100    -0.4780     0.0100 ns         1 ZQC      -0.464400
      3 C13          1.1150    -1.2640     0.0180 c          1 ZQC       0.624700
      4 C15          3.6440    -1.2870     0.0170 ca         1 ZQC      -0.047000
      5 C17          4.9820     0.7540    -0.0030 ca         1 ZQC      -0.067000
      6 C21          7.8600     0.3360     0.0010 c3         1 ZQC       0.015900
      7 C01         -5.7670     2.6580    -0.0190 ca         1 ZQC      -0.081000
      8 C02         -7.0150     2.0160    -0.0130 ca         1 ZQC      -0.164000
      9 C03         -7.0610     0.6130     0.0010 ca         1 ZQC       0.338900
     10 N04         -5.9500    -0.1600     0.0080 nb         1 ZQC      -0.673000
     11 C05         -4.7310     0.4500     0.0020 ca         1 ZQC       0.323000
     12 C06         -4.6120     1.8590    -0.0120 ca         1 ZQC      -0.129000
     13 C07         -3.5130    -0.4220     0.0100 cd         1 ZQC       0.246000
     14 C08         -3.5520    -1.8020     0.0240 cc         1 ZQC      -0.266000
     15 S09         -1.9560    -2.4910     0.0300 ss         1 ZQC       0.074600
     16 N11         -2.2220     0.1120     0.0050 nd         1 ZQC      -0.710000
     17 C14          2.4460    -0.5360     0.0100 ca         1 ZQC      -0.163600
     18 C16          4.8980    -0.6520     0.0110 ca         1 ZQC      -0.125500
     19 C18          3.7980     1.5070    -0.0110 ca         1 ZQC      -0.125500
     20 C19          2.5420     0.8770    -0.0040 ca         1 ZQC      -0.047000
     21 O22          1.0550    -2.4840     0.0300 o          1 ZQC      -0.581100
     22 H1           0.1540     0.5140     0.0000 hn         1 ZQC       0.341500
     23 H2           3.6090    -2.3750     0.0280 ha         1 ZQC       0.126000
     24 H3           7.7660    -0.2980    -0.8900 h1         1 ZQC       0.069367
     25 H4           8.8470     0.8140    -0.0040 h1         1 ZQC       0.069367
     26 H5           7.7660    -0.2800     0.9040 h1         1 ZQC       0.069367
     27 H6          -5.6970     3.7440    -0.0300 ha         1 ZQC       0.118000
     28 H7          -7.9370     2.5910    -0.0180 ha         1 ZQC       0.122000
     29 H8          -8.0160     0.0890     0.0060 h4         1 ZQC       0.017100
     30 H9          -3.6320     2.3280    -0.0160 ha         1 ZQC       0.141000
     31 H10         -4.4160    -2.4510     0.0300 h4         1 ZQC       0.176000
     32 H11          5.7890    -1.2710     0.0170 ha         1 ZQC       0.125000
     33 H12          3.8510     2.5940    -0.0220 ha         1 ZQC       0.125000
     34 H13          1.6570     1.5090    -0.0100 ha         1 ZQC       0.126000
     35 S20          6.5480     1.6360    -0.0120 ss         1 ZQC      -0.137000
@<TRIPOS>BOND
     1     1     2 1   
     2     1    15 1   
     3     1    16 2   
     4     2     3 1   
     5     2    22 1   
     6     3    17 1   
     7     3    21 2   
     8     4    17 ar  
     9     4    18 ar  
    10     4    23 1   
    11     5    18 ar  
    12     5    19 ar  
    13     5    35 1   
    14     6    24 1   
    15     6    25 1   
    16     6    26 1   
    17     6    35 1   
    18     7     8 ar  
    19     7    12 ar  
    20     7    27 1   
    21     8     9 ar  
    22     8    28 1   
    23     9    10 ar  
    24     9    29 1   
    25    10    11 ar  
    26    11    12 ar  
    27    11    13 1   
    28    12    30 1   
    29    13    14 2   
    30    13    16 1   
    31    14    15 1   
    32    14    31 1   
    33    17    20 ar  
    34    18    32 1   
    35    19    20 ar  
    36    19    33 1   
    37    20    34 1   
@<TRIPOS>SUBSTRUCTURE
     1 ZQC         1 TEMP              0 ****  ****    0 ROOT
