@<TRIPOS>MOLECULE
ZQC
   35    37     1     0     0
SMALL
bcc


@<TRIPOS>ATOM
      1 C10         -1.2880    -0.5400     0.0130 cc         1 ZQC       0.531300
      2 N12          0.0180    -0.1180    -0.0020 ns         1 ZQC      -0.531400
      3 C13          1.0930    -0.9550     0.0270 c          1 ZQC       0.691700
      4 C15          3.5390    -1.1900    -0.0100 ca         1 ZQC      -0.065000
      5 C17          5.0550     0.6800     0.0120 ca         1 ZQC       0.059900
      6 C21          7.7800     0.0310    -0.0160 c3         1 ZQC      -0.032000
      7 C01         -5.9080     2.5000    -0.0470 ca         1 ZQC      -0.099000
      8 C02         -7.0890     1.7750    -0.0290 ca         1 ZQC      -0.247300
      9 C03         -7.0010     0.3900     0.0030 ca         1 ZQC       0.404200
     10 N04         -5.8530    -0.2690     0.0160 nb         1 ZQC      -0.673000
     11 C05         -4.7180     0.4290    -0.0030 ca         1 ZQC       0.388300
     12 C06         -4.7000     1.8210    -0.0350 ca         1 ZQC      -0.212300
     13 C07         -3.4720    -0.3460     0.0130 cd         1 ZQC       0.311300
     14 C08         -3.3930    -1.7030     0.0480 cc         1 ZQC      -0.204400
     15 S09         -1.7510    -2.2080     0.0560 ss         1 ZQC      -0.070300
     16 N11         -2.2670     0.3020    -0.0060 nd         1 ZQC      -0.710000
     17 C14          2.4380    -0.3370     0.0200 ca         1 ZQC      -0.163600
     18 C16          4.8310    -0.6960    -0.0150 ca         1 ZQC      -0.143500
     19 C18          3.9550     1.5430     0.0440 ca         1 ZQC      -0.143500
     20 C19          2.6700     1.0410     0.0480 ca         1 ZQC      -0.065000
     21 O22          0.9250    -2.1630     0.0560 o          1 ZQC      -0.581100
     22 H1           0.1320     0.8840    -0.0340 hn         1 ZQC       0.341500
     23 H2           3.3910    -2.2600    -0.0300 ha         1 ZQC       0.144000
     24 H3           7.6730    -0.5630    -0.9210 h1         1 ZQC       0.069367
     25 H4           8.7760     0.4680    -0.0040 h1         1 ZQC       0.069367
     26 H5           7.6670    -0.5990     0.8640 h1         1 ZQC       0.069367
     27 H6          -5.9240     3.5820    -0.0710 ha         1 ZQC       0.136000
     28 H7          -8.0540     2.2630    -0.0380 ha         1 ZQC       0.140000
     29 H8          -7.9020    -0.2140     0.0180 h4         1 ZQC       0.017100
     30 H9          -3.7620     2.3580    -0.0490 ha         1 ZQC       0.159000
     31 H10         -4.2000    -2.4160     0.0680 h4         1 ZQC       0.194000
     32 H11          5.6530    -1.3970    -0.0400 ha         1 ZQC       0.143000
     33 H12          4.1030     2.6150     0.0670 ha         1 ZQC       0.143000
     34 H13          1.8630     1.7610     0.0780 ha         1 ZQC       0.144000
     35 S20          6.6390     1.4240     0.0100 ss         1 ZQC      -0.216000
@<TRIPOS>BOND
     1     1     2 1   
     2     1    15 1   
     3     1    16 2   
     4     2     3 1   
     5     2    22 1   
     6     3    17 1   
     7     3    21 2   
     8     4    17 ar  
     9     4    18 ar  
    10     4    23 1   
    11     5    18 ar  
    12     5    19 ar  
    13     5    35 1   
    14     6    24 1   
    15     6    25 1   
    16     6    26 1   
    17     6    35 1   
    18     7     8 ar  
    19     7    12 ar  
    20     7    27 1   
    21     8     9 ar  
    22     8    28 1   
    23     9    10 ar  
    24     9    29 1   
    25    10    11 ar  
    26    11    12 ar  
    27    11    13 1   
    28    12    30 1   
    29    13    14 2   
    30    13    16 1   
    31    14    15 1   
    32    14    31 1   
    33    17    20 ar  
    34    18    32 1   
    35    19    20 ar  
    36    19    33 1   
    37    20    34 1   
@<TRIPOS>SUBSTRUCTURE
     1 ZQC         1 TEMP              0 ****  ****    0 ROOT
