@<TRIPOS>MOLECULE
ZQD
   29    30     1     0     0
SMALL
bcc


@<TRIPOS>ATOM
      1 C10         24.2300   -69.5760    -1.5000 c5         1 ZQD       0.225800
      2 C15         26.8030   -70.9220     0.2960 c3         1 ZQD      -0.272300
      3 C02         23.9140   -65.0840     1.6960 cc         1 ZQD       0.301000
      4 C03         24.9700   -65.5390     0.9810 cd         1 ZQD      -0.398600
      5 C04         24.5720   -66.8380     0.5760 cd         1 ZQD       0.327600
      6 N05         23.3800   -67.1200     1.0120 nc         1 ZQD      -0.328300
      7 O06         22.9650   -66.0250     1.7130 os         1 ZQD      -0.118100
      8 C07         25.3580   -67.7920    -0.2700 c5         1 ZQD       0.206200
      9 C08         25.2770   -67.4500    -1.7660 c5         1 ZQD      -0.085400
     10 C09         24.0810   -68.2590    -2.2500 c5         1 ZQD      -0.087400
     11 N11         24.7950   -69.1380    -0.2190 n3         1 ZQD      -0.772500
     12 S12         25.2900   -70.2090     0.9090 s6         1 ZQD       1.265900
     13 O13         25.6080   -69.4520     2.1110 o          1 ZQD      -0.599800
     14 O14         24.2930   -71.2670     0.9660 o          1 ZQD      -0.599800
     15 H1          23.2800   -70.0870    -1.3540 h1         1 ZQD       0.055700
     16 H2          24.9090   -70.2500    -2.0320 h1         1 ZQD       0.055700
     17 H3          27.1580   -71.6480     1.0260 h1         1 ZQD       0.097700
     18 H4          26.6130   -71.4180    -0.6530 h1         1 ZQD       0.097700
     19 H5          27.5450   -70.1360     0.1650 h1         1 ZQD       0.097700
     20 H6          23.5030   -63.9980     3.4850 hc         1 ZQD       0.062700
     21 H7          24.4940   -63.1440     2.3000 hc         1 ZQD       0.062700
     22 H8          22.7560   -63.3250     2.0400 hc         1 ZQD       0.062700
     23 H9          25.8990   -65.0350     0.7740 ha         1 ZQD       0.168000
     24 H10         26.3990   -67.7660     0.0640 h1         1 ZQD       0.069700
     25 H11         26.1890   -67.7900    -2.2590 hc         1 ZQD       0.057200
     26 H12         25.1820   -66.3790    -1.9410 hc         1 ZQD       0.057200
     27 H13         24.0750   -68.4050    -3.3290 hc         1 ZQD       0.063700
     28 H14         23.1450   -67.7720    -1.9700 hc         1 ZQD       0.063700
     29 C01         23.6510   -63.8200     2.4190 c3         1 ZQD      -0.136400
@<TRIPOS>BOND
     1     1    10 1   
     2     1    11 1   
     3     1    15 1   
     4     1    16 1   
     5     2    12 1   
     6     2    17 1   
     7     2    18 1   
     8     2    19 1   
     9     3     4 2   
    10     3     7 1   
    11     3    29 1   
    12     4     5 1   
    13     4    23 1   
    14     5     6 2   
    15     5     8 1   
    16     6     7 1   
    17     8     9 1   
    18     8    11 1   
    19     8    24 1   
    20     9    10 1   
    21     9    25 1   
    22     9    26 1   
    23    10    27 1   
    24    10    28 1   
    25    11    12 1   
    26    12    13 2   
    27    12    14 2   
    28    20    29 1   
    29    21    29 1   
    30    22    29 1   
@<TRIPOS>SUBSTRUCTURE
     1 ZQD         1 TEMP              0 ****  ****    0 ROOT
