@<TRIPOS>MOLECULE
ZQD
   29    30     1     0     0
SMALL
No Charge or Current Charge


@<TRIPOS>ATOM
      1 C10         25.3070   -69.5070    -1.7810 c5         1 ZQD       0.225800
      2 C15         25.6780   -71.2070     0.8980 c3         1 ZQD      -0.383100
      3 C02         23.7280   -65.3160     1.8930 cc         1 ZQD       0.191300
      4 C03         24.8410   -65.7030     1.2220 cd         1 ZQD      -0.250000
      5 C04         24.4320   -66.6510     0.2620 cd         1 ZQD       0.262300
      6 N05         23.1180   -66.8480     0.3140 nc         1 ZQD      -0.328300
      7 O06         22.6510   -65.9850     1.3730 os         1 ZQD      -0.073700
      8 C07         25.3330   -67.3820    -0.7450 c5         1 ZQD       0.206200
      9 C08         24.8070   -67.2200    -2.2100 c5         1 ZQD      -0.085400
     10 C09         24.2960   -68.6410    -2.5590 c5         1 ZQD      -0.087400
     11 N11         25.2480   -68.8480    -0.4640 n3         1 ZQD      -0.772500
     12 S12         26.1660   -69.4900     0.8360 s6         1 ZQD       1.235100
     13 O13         27.5790   -69.3940     0.4600 o          1 ZQD      -0.529000
     14 O14         25.6690   -68.8590     2.0620 o          1 ZQD      -0.529000
     15 H1          24.9920   -70.5580    -1.7470 h1         1 ZQD       0.055700
     16 H2          26.3130   -69.4580    -2.2210 h1         1 ZQD       0.055700
     17 H3          26.1600   -71.6520     1.7730 h1         1 ZQD       0.097700
     18 H4          24.5870   -71.2330     0.9870 h1         1 ZQD       0.097700
     19 H5          26.0170   -71.6870    -0.0250 h1         1 ZQD       0.097700
     20 H6          23.1010   -64.8450     3.8920 hc         1 ZQD       0.062700
     21 H7          24.4830   -63.8920     3.3160 hc         1 ZQD       0.062700
     22 H8          22.8500   -63.5380     2.7180 hc         1 ZQD       0.062700
     23 H9          25.8520   -65.3550     1.3980 ha         1 ZQD       0.150000
     24 H10         26.3610   -67.0000    -0.6590 h1         1 ZQD       0.069700
     25 H11         25.6270   -66.9280    -2.8760 hc         1 ZQD       0.057200
     26 H12         24.0280   -66.4560    -2.3140 hc         1 ZQD       0.057200
     27 H13         24.3070   -68.8440    -3.6350 hc         1 ZQD       0.063700
     28 H14         23.2730   -68.8040    -2.1980 hc         1 ZQD       0.063700
     29 C01         23.5300   -64.3430     3.0170 c3         1 ZQD      -0.136400
@<TRIPOS>BOND
     1     1    10 1   
     2     1    11 1   
     3     1    15 1   
     4     1    16 1   
     5     2    12 1   
     6     2    17 1   
     7     2    18 1   
     8     2    19 1   
     9     3     4 2   
    10     3     7 1   
    11     3    29 1   
    12     4     5 1   
    13     4    23 1   
    14     5     6 2   
    15     5     8 1   
    16     6     7 1   
    17     8     9 1   
    18     8    11 1   
    19     8    24 1   
    20     9    10 1   
    21     9    25 1   
    22     9    26 1   
    23    10    27 1   
    24    10    28 1   
    25    11    12 1   
    26    12    13 2   
    27    12    14 2   
    28    20    29 1   
    29    21    29 1   
    30    22    29 1   
@<TRIPOS>SUBSTRUCTURE
     1 ZQD         1 TEMP              0 ****  ****    0 ROOT
