@<TRIPOS>MOLECULE
ZQF
   94    97     1     0     0
SMALL
No Charge or Current Charge


@<TRIPOS>ATOM
      1 N1         139.6910   137.0830   163.3920 ns         1 ZQF      -0.138000
      2 N3         128.9980   136.1220   163.8220 nu         1 ZQF      -0.913100
      3 C4         142.6240   139.4080   163.4250 ca         1 ZQF      -0.155600
      4 C5         142.8520   140.8920   163.1580 c          1 ZQF       0.722600
      5 C6         141.3130   138.8790   163.3030 ca         1 ZQF      -0.115000
      6 C7         141.0400   137.5180   163.5290 ca         1 ZQF      -0.066000
      7 C8         139.1080   135.8200   163.4000 c          1 ZQF       0.607100
      8 C10        136.9000   135.4470   164.5640 c3         1 ZQF       0.118000
      9 C13        132.5820   135.1840   164.0620 ca         1 ZQF      -0.039000
     10 C15        130.6070   133.6590   163.6330 c          1 ZQF       0.723600
     11 C17        128.5110   135.5720   166.4570 ca         1 ZQF      -0.290500
     12 C20        129.5670   134.2270   168.7030 ca         1 ZQF      -0.041300
     13 C21        130.1310   133.5010   169.9170 c3         1 ZQF      -0.035100
     14 C22        129.1210   133.4510   171.0840 c3         1 ZQF      -0.074400
     15 C24        128.6600   132.6760   173.4940 c3         1 ZQF      -0.087100
     16 C26        129.3270   136.2620   167.3750 ca         1 ZQF      -0.006500
     17 C28        132.3380   137.5750   164.3940 ca         1 ZQF      -0.044000
     18 N          144.9720   139.0000   163.9450 nu         1 ZQF      -0.893100
     19 C          143.7090   140.5890   168.1890 ca         1 ZQF      -0.135500
     20 O          146.8770   139.9400   165.1280 o          1 ZQF      -0.571000
     21 C1         144.5730   140.3830   167.1000 ca         1 ZQF      -0.002000
     22 C11        134.6690   136.6170   164.5020 c          1 ZQF       0.621700
     23 C12        133.1740   136.4440   164.3170 ca         1 ZQF      -0.201600
     24 C14        131.1820   135.0420   163.8890 ca         1 ZQF      -0.199600
     25 C16        130.3680   136.1970   163.9810 ca         1 ZQF       0.317000
     26 C18        128.2280   134.2060   166.6610 ca         1 ZQF      -0.006500
     27 C19        128.7540   133.5410   167.7810 ca         1 ZQF      -0.134500
     28 C2         144.8840   139.0730   166.6860 ca         1 ZQF      -0.290500
     29 C23        129.6690   132.7220   172.3300 c3         1 ZQF      -0.077400
     30 C25        129.8490   135.5900   168.4940 ca         1 ZQF      -0.134500
     31 C27        130.9530   137.4470   164.2250 ca         1 ZQF      -0.190000
     32 C29        142.0970   136.6610   163.8870 ca         1 ZQF      -0.122000
     33 C3         143.6750   138.5310   163.7970 ca         1 ZQF       0.256000
     34 C30        143.3990   137.1680   164.0140 ca         1 ZQF      -0.142000
     35 C31        144.3200   137.9730   167.3620 ca         1 ZQF      -0.002000
     36 C32        143.4560   138.1870   168.4500 ca         1 ZQF      -0.135500
     37 C33        143.1470   139.4930   168.8720 ca         1 ZQF      -0.040300
     38 C34        142.2110   139.7160   170.0550 c3         1 ZQF      -0.035100
     39 C35        142.8520   139.3530   171.4140 c3         1 ZQF      -0.069400
     40 C36        144.0850   140.2140   171.7720 c3         1 ZQF      -0.078400
     41 C37        144.6850   139.8670   173.1480 c3         1 ZQF      -0.087100
     42 C9         137.5870   135.8290   163.2400 c3         1 ZQF      -0.187400
     43 N2         135.4400   135.4760   164.4440 ns         1 ZQF      -0.511900
     44 O1         146.4130   137.4160   165.2070 o          1 ZQF      -0.571000
     45 O2         143.9060   141.4090   163.5070 o          1 ZQF      -0.693500
     46 O3         141.9670   141.5200   162.5940 o          1 ZQF      -0.693500
     47 O4         139.7310   134.7680   163.4870 o          1 ZQF      -0.612100
     48 O5         135.1770   137.7130   164.6930 o          1 ZQF      -0.627100
     49 O6         129.4440   133.5550   163.2620 o          1 ZQF      -0.687500
     50 O7         131.3340   132.6910   163.7980 o          1 ZQF      -0.687500
     51 O8         127.9050   137.8730   165.1960 o          1 ZQF      -0.564500
     52 O9         126.6960   135.7180   164.4960 o          1 ZQF      -0.564500
     53 S          145.9600   138.8080   165.2740 sy         1 ZQF       1.136600
     54 S1         127.8720   136.4200   165.0100 sy         1 ZQF       1.145600
     55 H5         139.0290   137.8390   163.2750 hn         1 ZQF       0.152000
     56 H13        128.7230   135.1770   163.5500 hn         1 ZQF       0.585000
     57 H4         140.4910   139.5370   163.0300 ha         1 ZQF       0.132000
     58 H9         137.2100   136.1390   165.3590 h1         1 ZQF       0.059700
     59 H8         137.2070   134.4350   164.8610 h1         1 ZQF       0.059700
     60 H11        133.2060   134.2970   163.9910 ha         1 ZQF       0.132000
     61 H17        130.4140   132.4780   169.6410 hc         1 ZQF       0.046700
     62 H16        131.0510   133.9920   170.2570 hc         1 ZQF       0.046700
     63 H18        128.8410   134.4760   171.3580 hc         1 ZQF       0.042200
     64 H19        128.2060   132.9500   170.7450 hc         1 ZQF       0.042200
     65 H22        129.0910   132.1470   174.3520 hc         1 ZQF       0.028033
     66 H24        128.3910   133.6890   173.8140 hc         1 ZQF       0.028033
     67 H23        127.7440   132.1520   173.1930 hc         1 ZQF       0.028033
     68 H26        129.5630   137.3140   167.2250 ha         1 ZQF       0.140000
     69 H28        132.7580   138.5610   164.5840 ha         1 ZQF       0.117000
     70 H2         145.0110   140.0150   163.8290 hn         1 ZQF       0.575000
     71 H          143.4780   141.6040   168.5020 ha         1 ZQF       0.105500
     72 H1         144.9930   141.2430   166.5800 ha         1 ZQF       0.138500
     73 H14        127.6080   133.6560   165.9550 ha         1 ZQF       0.140000
     74 H15        128.5300   132.4880   167.9320 ha         1 ZQF       0.107000
     75 H21        129.9460   131.6960   172.0580 hc         1 ZQF       0.036200
     76 H20        130.5840   133.2220   172.6720 hc         1 ZQF       0.036200
     77 H25        130.4750   136.1320   169.1980 ha         1 ZQF       0.107000
     78 H27        130.3310   138.3350   164.2780 ha         1 ZQF       0.127000
     79 H29        141.9340   135.6050   164.0780 ha         1 ZQF       0.131000
     80 H30        144.2000   136.4860   164.2790 ha         1 ZQF       0.128000
     81 H31        144.5410   136.9550   167.0470 ha         1 ZQF       0.138500
     82 H32        143.0250   137.3320   168.9650 ha         1 ZQF       0.105500
     83 H34        141.3060   139.1100   169.9220 hc         1 ZQF       0.048200
     84 H33        141.8710   140.7580   170.0870 hc         1 ZQF       0.048200
     85 H36        142.0950   139.4700   172.2000 hc         1 ZQF       0.033700
     86 H35        143.1370   138.2940   171.4080 hc         1 ZQF       0.033700
     87 H38        144.8600   140.0830   171.0060 hc         1 ZQF       0.044200
     88 H37        143.8030   141.2740   171.7620 hc         1 ZQF       0.044200
     89 H39        145.5550   140.5000   173.3560 hc         1 ZQF       0.025700
     90 H41        143.9470   140.0240   173.9440 hc         1 ZQF       0.025700
     91 H40        145.0080   138.8190   173.1760 hc         1 ZQF       0.025700
     92 H6         137.3070   135.0930   162.4780 hc         1 ZQF       0.069700
     93 H7         137.2450   136.8260   162.9390 hc         1 ZQF       0.069700
     94 H10        134.9540   134.6020   164.2950 hn         1 ZQF       0.323500
@<TRIPOS>BOND
     1     1     6 1   
     2     1     7 1   
     3     1    55 1   
     4     2    25 1   
     5     2    54 1   
     6     2    56 1   
     7     3     4 1   
     8     3     5 ar  
     9     3    33 ar  
    10     4    45 1   
    11     4    46 1   
    12     5     6 ar  
    13     5    57 1   
    14     6    32 ar  
    15     7    42 1   
    16     7    47 2   
    17     8    42 1   
    18     8    43 1   
    19     8    58 1   
    20     8    59 1   
    21     9    23 ar  
    22     9    24 ar  
    23     9    60 1   
    24    10    24 1   
    25    10    49 1   
    26    10    50 1   
    27    11    16 ar  
    28    11    26 ar  
    29    11    54 1   
    30    12    13 1   
    31    12    27 ar  
    32    12    30 ar  
    33    13    14 1   
    34    13    61 1   
    35    13    62 1   
    36    14    29 1   
    37    14    63 1   
    38    14    64 1   
    39    15    29 1   
    40    15    65 1   
    41    15    66 1   
    42    15    67 1   
    43    16    30 ar  
    44    16    68 1   
    45    17    23 ar  
    46    17    31 ar  
    47    17    69 1   
    48    18    33 1   
    49    18    53 1   
    50    18    70 1   
    51    19    21 ar  
    52    19    37 ar  
    53    19    71 1   
    54    20    53 2   
    55    21    28 ar  
    56    21    72 1   
    57    22    23 1   
    58    22    43 1   
    59    22    48 2   
    60    24    25 ar  
    61    25    31 ar  
    62    26    27 ar  
    63    26    73 1   
    64    27    74 1   
    65    28    35 ar  
    66    28    53 1   
    67    29    75 1   
    68    29    76 1   
    69    30    77 1   
    70    31    78 1   
    71    32    34 ar  
    72    32    79 1   
    73    33    34 ar  
    74    34    80 1   
    75    35    36 ar  
    76    35    81 1   
    77    36    37 ar  
    78    36    82 1   
    79    37    38 1   
    80    38    39 1   
    81    38    83 1   
    82    38    84 1   
    83    39    40 1   
    84    39    85 1   
    85    39    86 1   
    86    40    41 1   
    87    40    87 1   
    88    40    88 1   
    89    41    89 1   
    90    41    90 1   
    91    41    91 1   
    92    42    92 1   
    93    42    93 1   
    94    43    94 1   
    95    44    53 2   
    96    51    54 2   
    97    52    54 2   
@<TRIPOS>SUBSTRUCTURE
     1 ZQF         1 TEMP              0 ****  ****    0 ROOT
