@<TRIPOS>MOLECULE
ZQF
   94    97     1     0     0
SMALL
abcg2


@<TRIPOS>ATOM
      1 N1         139.4130   137.1440   164.3840 ns         1 ZQF      -0.138000
      2 N3         128.6130   136.4210   163.9990 nu         1 ZQF      -0.913100
      3 C4         142.7800   138.4660   163.7000 ca         1 ZQF      -0.155600
      4 C5         143.3300   139.6960   162.9820 c          1 ZQF       0.722600
      5 C6         141.4030   138.3030   163.7690 ca         1 ZQF      -0.115000
      6 C7         140.8120   137.2120   164.4000 ca         1 ZQF      -0.066000
      7 C8         138.5910   136.3230   165.0830 c          1 ZQF       0.607100
      8 C10        136.2210   136.1080   165.9170 c3         1 ZQF       0.118000
      9 C13        132.2540   136.0060   164.1900 ca         1 ZQF      -0.039000
     10 C15        130.6170   134.7380   162.7760 c          1 ZQF       0.723600
     11 C17        127.9940   135.2870   166.3850 ca         1 ZQF      -0.290500
     12 C20        129.0010   133.5950   168.3510 ca         1 ZQF      -0.041300
     13 C21        129.4950   132.6680   169.4220 c3         1 ZQF      -0.035100
     14 C22        128.3420   131.9590   170.1350 c3         1 ZQF      -0.074400
     15 C24        127.6710   130.2920   171.9180 c3         1 ZQF      -0.087100
     16 C26        128.2310   135.7840   167.6570 ca         1 ZQF      -0.006500
     17 C28        131.6310   137.7810   165.6630 ca         1 ZQF      -0.044000
     18 N          145.0020   137.6270   164.1620 nu         1 ZQF      -0.893100
     19 C          145.0670   140.9790   167.3530 ca         1 ZQF      -0.135500
     20 O          147.2800   138.0230   165.0120 o          1 ZQF      -0.571000
     21 C1         145.5870   140.0620   166.4540 ca         1 ZQF      -0.002000
     22 C11        134.0350   137.1740   165.5610 c          1 ZQF       0.621700
     23 C12        132.6220   136.9630   165.1270 ca         1 ZQF      -0.201600
     24 C14        130.9330   135.8170   163.8060 ca         1 ZQF      -0.199600
     25 C16        129.9420   136.6270   164.3900 ca         1 ZQF       0.317000
     26 C18        128.2590   133.9570   166.0760 ca         1 ZQF      -0.006500
     27 C19        128.7580   133.1230   167.0600 ca         1 ZQF      -0.134500
     28 C2         145.3410   138.7090   166.6480 ca         1 ZQF      -0.290500
     29 C23        128.8220   130.9930   171.2100 c3         1 ZQF      -0.077400
     30 C25        128.7300   134.9310   168.6320 ca         1 ZQF      -0.134500
     31 C27        130.3070   137.6150   165.3070 ca         1 ZQF      -0.190000
     32 C29        141.6420   136.2470   164.9710 ca         1 ZQF      -0.122000
     33 C3         143.6030   137.4870   164.2800 ca         1 ZQF       0.256000
     34 C30        143.0170   136.3880   164.8990 ca         1 ZQF      -0.142000
     35 C31        144.5690   138.2720   167.7150 ca         1 ZQF      -0.002000
     36 C32        144.0510   139.2040   168.5990 ca         1 ZQF      -0.135500
     37 C33        144.2950   140.5670   168.4380 ca         1 ZQF      -0.040300
     38 C34        143.7570   141.5570   169.4320 c3         1 ZQF      -0.035100
     39 C35        144.4200   141.4390   170.8090 c3         1 ZQF      -0.069400
     40 C36        145.9120   141.7410   170.8010 c3         1 ZQF      -0.078400
     41 C37        146.5300   141.6540   172.1900 c3         1 ZQF      -0.087100
     42 C9         137.1230   136.4760   164.7420 c3         1 ZQF      -0.187400
     43 N2         134.8240   136.0850   165.5480 ns         1 ZQF      -0.511900
     44 O1         145.8990   136.2200   166.0700 o          1 ZQF      -0.571000
     45 O2         144.5850   139.7650   162.8570 o          1 ZQF      -0.693500
     46 O3         142.5180   140.5280   162.5710 o          1 ZQF      -0.693500
     47 O4         138.9820   135.5040   165.8970 o          1 ZQF      -0.612100
     48 O5         134.4300   138.2730   165.9290 o          1 ZQF      -0.627100
     49 O6         129.3980   134.5690   162.4850 o          1 ZQF      -0.687500
     50 O7         131.5640   134.1070   162.3020 o          1 ZQF      -0.687500
     51 O8         127.1620   137.6650   165.6760 o          1 ZQF      -0.564500
     52 O9         126.2940   135.6860   164.4120 o          1 ZQF      -0.564500
     53 S          145.9870   137.5470   165.4770 sy         1 ZQF       1.136600
     54 S1         127.3910   136.3480   165.1010 sy         1 ZQF       1.145600
     55 H5         138.9640   137.8190   163.7820 hn         1 ZQF       0.152000
     56 H13        128.6180   135.6160   163.2990 hn         1 ZQF       0.585000
     57 H4         140.7770   139.0600   163.3130 ha         1 ZQF       0.132000
     58 H9         136.3680   136.8070   166.7400 h1         1 ZQF       0.059700
     59 H8         136.4760   135.1170   166.2870 h1         1 ZQF       0.059700
     60 H11        133.0010   135.3800   163.7180 ha         1 ZQF       0.132000
     61 H17        130.1620   131.9220   168.9830 hc         1 ZQF       0.046700
     62 H16        130.0830   133.2290   170.1530 hc         1 ZQF       0.046700
     63 H18        127.6790   132.7060   170.5820 hc         1 ZQF       0.042200
     64 H19        127.7410   131.4170   169.3980 hc         1 ZQF       0.042200
     65 H22        128.0330   129.5980   172.6780 hc         1 ZQF       0.028033
     66 H24        127.0160   131.0110   172.4130 hc         1 ZQF       0.028033
     67 H23        127.0630   129.7230   171.2130 hc         1 ZQF       0.028033
     68 H26        128.0350   136.8200   167.8940 ha         1 ZQF       0.140000
     69 H28        131.8920   138.5550   166.3730 ha         1 ZQF       0.117000
     70 H2         145.1660   138.5010   163.5840 hn         1 ZQF       0.575000
     71 H          145.2670   142.0330   167.2100 ha         1 ZQF       0.105500
     72 H1         146.1860   140.4070   165.6210 ha         1 ZQF       0.138500
     73 H14        128.0930   133.5720   165.0770 ha         1 ZQF       0.140000
     74 H15        128.9690   132.0880   166.8210 ha         1 ZQF       0.107000
     75 H21        129.4850   130.2490   170.7580 hc         1 ZQF       0.036200
     76 H20        129.4280   131.5360   171.9410 hc         1 ZQF       0.036200
     77 H25        128.9160   135.3170   169.6270 ha         1 ZQF       0.107000
     78 H27        129.5600   138.2650   165.7370 ha         1 ZQF       0.127000
     79 H29        141.2350   135.3760   165.4570 ha         1 ZQF       0.131000
     80 H30        143.6360   135.6100   165.3220 ha         1 ZQF       0.128000
     81 H31        144.3750   137.2190   167.8670 ha         1 ZQF       0.138500
     82 H32        143.4480   138.8620   169.4330 ha         1 ZQF       0.105500
     83 H34        142.6800   141.4060   169.5440 hc         1 ZQF       0.048200
     84 H33        143.8940   142.5720   169.0500 hc         1 ZQF       0.048200
     85 H36        143.9150   142.1250   171.4940 hc         1 ZQF       0.033700
     86 H35        144.2510   140.4330   171.2070 hc         1 ZQF       0.033700
     87 H38        146.4280   141.0480   170.1320 hc         1 ZQF       0.044200
     88 H37        146.0760   142.7410   170.3870 hc         1 ZQF       0.044200
     89 H39        147.5980   141.8740   172.1670 hc         1 ZQF       0.025700
     90 H41        146.0620   142.3620   172.8770 hc         1 ZQF       0.025700
     91 H40        146.4060   140.6560   172.6130 hc         1 ZQF       0.025700
     92 H6         136.9110   135.8080   163.9010 hc         1 ZQF       0.069700
     93 H7         136.9000   137.4870   164.3970 hc         1 ZQF       0.069700
     94 H10        134.4250   135.1910   165.3160 hn         1 ZQF       0.323500
@<TRIPOS>BOND
     1     1     6 1   
     2     1     7 1   
     3     1    55 1   
     4     2    25 1   
     5     2    54 1   
     6     2    56 1   
     7     3     4 1   
     8     3     5 ar  
     9     3    33 ar  
    10     4    45 1   
    11     4    46 1   
    12     5     6 ar  
    13     5    57 1   
    14     6    32 ar  
    15     7    42 1   
    16     7    47 2   
    17     8    42 1   
    18     8    43 1   
    19     8    58 1   
    20     8    59 1   
    21     9    23 ar  
    22     9    24 ar  
    23     9    60 1   
    24    10    24 1   
    25    10    49 1   
    26    10    50 1   
    27    11    16 ar  
    28    11    26 ar  
    29    11    54 1   
    30    12    13 1   
    31    12    27 ar  
    32    12    30 ar  
    33    13    14 1   
    34    13    61 1   
    35    13    62 1   
    36    14    29 1   
    37    14    63 1   
    38    14    64 1   
    39    15    29 1   
    40    15    65 1   
    41    15    66 1   
    42    15    67 1   
    43    16    30 ar  
    44    16    68 1   
    45    17    23 ar  
    46    17    31 ar  
    47    17    69 1   
    48    18    33 1   
    49    18    53 1   
    50    18    70 1   
    51    19    21 ar  
    52    19    37 ar  
    53    19    71 1   
    54    20    53 2   
    55    21    28 ar  
    56    21    72 1   
    57    22    23 1   
    58    22    43 1   
    59    22    48 2   
    60    24    25 ar  
    61    25    31 ar  
    62    26    27 ar  
    63    26    73 1   
    64    27    74 1   
    65    28    35 ar  
    66    28    53 1   
    67    29    75 1   
    68    29    76 1   
    69    30    77 1   
    70    31    78 1   
    71    32    34 ar  
    72    32    79 1   
    73    33    34 ar  
    74    34    80 1   
    75    35    36 ar  
    76    35    81 1   
    77    36    37 ar  
    78    36    82 1   
    79    37    38 1   
    80    38    39 1   
    81    38    83 1   
    82    38    84 1   
    83    39    40 1   
    84    39    85 1   
    85    39    86 1   
    86    40    41 1   
    87    40    87 1   
    88    40    88 1   
    89    41    89 1   
    90    41    90 1   
    91    41    91 1   
    92    42    92 1   
    93    42    93 1   
    94    43    94 1   
    95    44    53 2   
    96    51    54 2   
    97    52    54 2   
@<TRIPOS>SUBSTRUCTURE
     1 ZQF         1 TEMP              0 ****  ****    0 ROOT
