@<TRIPOS>MOLECULE
ZQG
   20    20     1     0     0
SMALL
abcg2


@<TRIPOS>ATOM
      1 N01         51.7860   -53.3290    -7.9060 n8         1 ZQG      -0.994200
      2 C02         50.5450   -53.1310    -8.6400 c3         1 ZQG       0.149800
      3 C03         49.7620   -54.4310    -8.7410 c3         1 ZQG      -0.079400
      4 C04         48.4470   -54.2510    -9.5000 c3         1 ZQG      -0.107700
      5 C05         47.6710   -55.5150    -9.6330 cc         1 ZQG       0.401800
      6 N06         47.1220   -56.1590    -8.5780 na         1 ZQG      -0.300500
      7 C07         46.5060   -57.2870    -9.0410 cc         1 ZQG      -0.233000
      8 C08         46.7150   -57.2740   -10.3890 cd         1 ZQG       0.233900
      9 N09         47.4400   -56.1700   -10.7450 nd         1 ZQG      -0.673000
     10 H1          52.3140   -52.4650    -7.8970 hn         1 ZQG       0.392000
     11 H2          51.5720   -53.5260    -6.9360 hn         1 ZQG       0.392000
     12 H4          50.7940   -52.7870    -9.6470 h1         1 ZQG       0.027700
     13 H5          49.8950   -52.3570    -8.2040 h1         1 ZQG       0.027700
     14 H6          49.5560   -54.8070    -7.7330 hc         1 ZQG       0.050700
     15 H7          50.3760   -55.1860    -9.2380 hc         1 ZQG       0.050700
     16 H8          48.6460   -53.8780   -10.5060 hc         1 ZQG       0.061200
     17 H9          47.8370   -53.4920    -8.9990 hc         1 ZQG       0.061200
     18 H10         47.1570   -55.8600    -7.6160 hn         1 ZQG       0.347000
     19 H11         45.9900   -57.9730    -8.3920 h4         1 ZQG       0.156000
     20 H12         46.3830   -57.9980   -11.1180 h4         1 ZQG       0.037100
@<TRIPOS>BOND
     1     1     2 1   
     2     1    10 1   
     3     1    11 1   
     4     2     3 1   
     5     2    12 1   
     6     2    13 1   
     7     3     4 1   
     8     3    14 1   
     9     3    15 1   
    10     4     5 1   
    11     4    16 1   
    12     4    17 1   
    13     5     6 1   
    14     5     9 2   
    15     6     7 1   
    16     6    18 1   
    17     7     8 2   
    18     7    19 1   
    19     8     9 1   
    20     8    20 1   
@<TRIPOS>SUBSTRUCTURE
     1 ZQG         1 TEMP              0 ****  ****    0 ROOT
