@<TRIPOS>MOLECULE
ZQG
   20    20     1     0     0
SMALL
No Charge or Current Charge


@<TRIPOS>ATOM
      1 N01         51.8860   -53.2940    -8.0060 n8         1 ZQG      -0.994200
      2 C02         50.5750   -53.0940    -8.6480 c3         1 ZQG       0.149800
      3 C03         49.8010   -54.4210    -8.7770 c3         1 ZQG      -0.079400
      4 C04         48.4190   -54.2500    -9.4500 c3         1 ZQG      -0.107700
      5 C05         47.6620   -55.5430    -9.5860 cc         1 ZQG       0.401800
      6 N06         46.9310   -56.1190    -8.5780 na         1 ZQG      -0.300500
      7 C07         46.3860   -57.2890    -9.0670 cc         1 ZQG      -0.233000
      8 C08         46.8160   -57.3710   -10.3670 cd         1 ZQG       0.233900
      9 N09         47.6070   -56.2830   -10.6810 nd         1 ZQG      -0.673000
     10 H1          52.3440   -52.3820    -7.8880 hn         1 ZQG       0.392000
     11 H2          51.7410   -53.6160    -7.0410 hn         1 ZQG       0.392000
     12 H4          50.7340   -52.6600    -9.6450 h1         1 ZQG       0.027700
     13 H5          49.9930   -52.3810    -8.0470 h1         1 ZQG       0.027700
     14 H6          49.6630   -54.8610    -7.7810 hc         1 ZQG       0.050700
     15 H7          50.3970   -55.1330    -9.3630 hc         1 ZQG       0.050700
     16 H8          48.5550   -53.8010   -10.4420 hc         1 ZQG       0.061200
     17 H9          47.8190   -53.5390    -8.8700 hc         1 ZQG       0.061200
     18 H10         46.8240   -55.7370    -7.6450 hn         1 ZQG       0.347000
     19 H11         45.7580   -57.9530    -8.4840 h4         1 ZQG       0.156000
     20 H12         46.6010   -58.1480   -11.0910 h4         1 ZQG       0.037100
@<TRIPOS>BOND
     1     1     2 1   
     2     1    10 1   
     3     1    11 1   
     4     2     3 1   
     5     2    12 1   
     6     2    13 1   
     7     3     4 1   
     8     3    14 1   
     9     3    15 1   
    10     4     5 1   
    11     4    16 1   
    12     4    17 1   
    13     5     6 1   
    14     5     9 2   
    15     6     7 1   
    16     6    18 1   
    17     7     8 2   
    18     7    19 1   
    19     8     9 1   
    20     8    20 1   
@<TRIPOS>SUBSTRUCTURE
     1 ZQG         1 TEMP              0 ****  ****    0 ROOT
