@<TRIPOS>MOLECULE
ZQH
   75    80     1     0     0
SMALL
No Charge or Current Charge


@<TRIPOS>ATOM
      1 C01        -46.6010    13.4840    -6.0950 c6         1 ZQH      -0.027000
      2 C02        -47.4210    13.0640    -7.3410 c6         1 ZQH      -0.060900
      3 C03        -46.4850    12.8070    -8.5710 c6         1 ZQH       0.000300
      4 C04        -45.6830    14.1270    -8.8360 c6         1 ZQH      -0.051400
      5 C05        -44.8290    14.5830    -7.5970 c6         1 ZQH      -0.112000
      6 C06        -45.8260    14.7920    -6.3990 c6         1 ZQH      -0.060900
      7 C07        -45.6010    12.3750    -5.7570 c2         1 ZQH      -0.099400
      8 C08        -45.4690    11.6870    -8.1670 c6         1 ZQH      -0.060900
      9 C09        -43.8520    13.4070    -7.2320 c6         1 ZQH      -0.060900
     10 C10        -44.6490    12.1110    -6.9200 c6         1 ZQH      -0.027000
     11 C11        -47.2580    12.3840    -9.8570 ca         1 ZQH      -0.064300
     12 C12        -48.6700    12.2510    -9.8910 ca         1 ZQH      -0.107000
     13 C13        -49.3300    11.8670   -11.0710 ca         1 ZQH      -0.110500
     14 C14        -48.5980    11.6070   -12.2390 ca         1 ZQH      -0.111000
     15 C15        -47.2020    11.7330   -12.2250 ca         1 ZQH      -0.110500
     16 C16        -46.5400    12.1170   -11.0470 ca         1 ZQH      -0.107000
     17 C17        -44.0220    15.9400    -7.9650 c          1 ZQH       0.614100
     18 C20        -42.9610    16.3230    -5.6200 c6         1 ZQH       0.110000
     19 C21        -41.4170    16.3140    -5.5690 c6         1 ZQH      -0.136400
     20 C22        -40.8540    17.7100    -5.9250 c6         1 ZQH       0.166500
     21 C23        -41.3950    18.2280    -7.3060 c6         1 ZQH      -0.052000
     22 C24        -42.9540    18.1450    -7.2720 c6         1 ZQH       0.087000
     23 C26        -40.9770    19.7150    -7.5340 c3         1 ZQH      -0.079600
     24 C27        -40.8380    17.4090    -8.5200 c3         1 ZQH      -0.079600
     25 C28        -45.5450    11.6800    -4.6040 c2         1 ZQH      -0.223200
     26 C29        -46.4190    11.8320    -3.3730 c3         1 ZQH       0.007100
     27 C30        -47.5270    10.7880    -3.3370 ca         1 ZQH      -0.075300
     28 C31        -47.3230     9.5570    -2.6830 ca         1 ZQH      -0.109000
     29 C32        -48.3430     8.5890    -2.6580 ca         1 ZQH      -0.109000
     30 C33        -49.5720     8.8460    -3.2900 ca         1 ZQH      -0.113000
     31 C34        -49.7800    10.0710    -3.9460 ca         1 ZQH      -0.109000
     32 C35        -48.7600    11.0380    -3.9710 ca         1 ZQH      -0.109000
     33 N18        -43.4550    16.7740    -6.9500 n          1 ZQH      -0.408800
     34 O19        -43.9380    16.3490    -9.1370 o          1 ZQH      -0.607100
     35 H1         -47.2960    13.6680    -5.2680 hc         1 ZQH       0.058700
     36 H2         -48.1530    13.8490    -7.5730 hc         1 ZQH       0.049200
     37 H3         -47.9920    12.1560    -7.1020 hc         1 ZQH       0.049200
     38 H4         -45.0160    13.9910    -9.6980 hc         1 ZQH       0.060700
     39 H5         -46.3800    14.9270    -9.1230 hc         1 ZQH       0.060700
     40 H6         -45.3350    15.1140    -5.4780 hc         1 ZQH       0.046700
     41 H7         -46.5370    15.5930    -6.6460 hc         1 ZQH       0.046700
     42 H8         -46.0080    10.7530    -7.9570 hc         1 ZQH       0.049200
     43 H9         -44.7800    11.4640    -8.9920 hc         1 ZQH       0.049200
     44 H10        -43.1680    13.2230    -8.0720 hc         1 ZQH       0.046700
     45 H11        -43.2060    13.6310    -6.3800 hc         1 ZQH       0.046700
     46 H12        -43.9450    11.3070    -6.6620 hc         1 ZQH       0.058700
     47 H13        -49.2800    12.4400    -9.0140 ha         1 ZQH       0.111500
     48 H14        -50.4130    11.7700   -11.0790 ha         1 ZQH       0.110500
     49 H15        -49.1110    11.3100   -13.1510 ha         1 ZQH       0.111000
     50 H16        -46.6300    11.5320   -13.1290 ha         1 ZQH       0.110500
     51 H17        -45.4570    12.2040   -11.0690 ha         1 ZQH       0.111500
     52 H18        -43.3400    17.0170    -4.8560 h1         1 ZQH       0.051200
     53 H19        -43.3230    15.3350    -5.3370 h1         1 ZQH       0.051200
     54 H20        -41.0300    15.5460    -6.2530 hc         1 ZQH       0.045700
     55 H21        -41.0930    16.0230    -4.5600 hc         1 ZQH       0.045700
     56 H22        -41.1890    18.4090    -5.1430 h1         1 ZQH       0.053700
     57 H23        -43.3310    18.8350    -6.5020 h1         1 ZQH       0.061700
     58 H24        -43.3670    18.5030    -8.2250 h1         1 ZQH       0.061700
     59 H25        -41.3250    20.3570    -6.7150 hc         1 ZQH       0.038200
     60 H26        -39.8880    19.8280    -7.5990 hc         1 ZQH       0.038200
     61 H27        -41.4020    20.1120    -8.4640 hc         1 ZQH       0.038200
     62 H28        -41.0760    16.3420    -8.4440 hc         1 ZQH       0.038200
     63 H29        -41.2670    17.7650    -9.4650 hc         1 ZQH       0.038200
     64 H30        -39.7490    17.4960    -8.6090 hc         1 ZQH       0.038200
     65 H31        -44.7900    10.9010    -4.4890 ha         1 ZQH       0.170000
     66 H32        -45.7940    11.7420    -2.4760 hc         1 ZQH       0.050200
     67 H33        -46.8510    12.8360    -3.3070 hc         1 ZQH       0.050200
     68 H34        -46.3740     9.3480    -2.1950 ha         1 ZQH       0.111500
     69 H35        -48.1800     7.6410    -2.1510 ha         1 ZQH       0.111500
     70 H36        -50.3610     8.0970    -3.2710 ha         1 ZQH       0.112000
     71 H37        -50.7300    10.2700    -4.4370 ha         1 ZQH       0.111500
     72 H38        -48.9290    11.9810    -4.4840 ha         1 ZQH       0.111500
     73 N25        -39.3790    17.6780    -5.8590 n8         1 ZQH      -0.987200
     74 H39        -39.1000    17.2060    -4.9920 hn         1 ZQH       0.391500
     75 H40        -39.0380    17.0520    -6.5960 hn         1 ZQH       0.391500
@<TRIPOS>BOND
     1     1     2 1   
     2     1     6 1   
     3     1     7 1   
     4     1    35 1   
     5     2     3 1   
     6     2    36 1   
     7     2    37 1   
     8     3     4 1   
     9     3     8 1   
    10     3    11 1   
    11     4     5 1   
    12     4    38 1   
    13     4    39 1   
    14     5     6 1   
    15     5     9 1   
    16     5    17 1   
    17     6    40 1   
    18     6    41 1   
    19     7    10 1   
    20     7    25 2   
    21     8    10 1   
    22     8    42 1   
    23     8    43 1   
    24     9    10 1   
    25     9    44 1   
    26     9    45 1   
    27    10    46 1   
    28    11    12 ar  
    29    11    16 ar  
    30    12    13 ar  
    31    12    47 1   
    32    13    14 ar  
    33    13    48 1   
    34    14    15 ar  
    35    14    49 1   
    36    15    16 ar  
    37    15    50 1   
    38    16    51 1   
    39    17    33 1   
    40    17    34 2   
    41    18    19 1   
    42    18    33 1   
    43    18    52 1   
    44    18    53 1   
    45    19    20 1   
    46    19    54 1   
    47    19    55 1   
    48    20    21 1   
    49    20    56 1   
    50    20    73 1   
    51    21    22 1   
    52    21    23 1   
    53    21    24 1   
    54    22    33 1   
    55    22    57 1   
    56    22    58 1   
    57    23    59 1   
    58    23    60 1   
    59    23    61 1   
    60    24    62 1   
    61    24    63 1   
    62    24    64 1   
    63    25    26 1   
    64    25    65 1   
    65    26    27 1   
    66    26    66 1   
    67    26    67 1   
    68    27    28 ar  
    69    27    32 ar  
    70    28    29 ar  
    71    28    68 1   
    72    29    30 ar  
    73    29    69 1   
    74    30    31 ar  
    75    30    70 1   
    76    31    32 ar  
    77    31    71 1   
    78    32    72 1   
    79    73    74 1   
    80    73    75 1   
@<TRIPOS>SUBSTRUCTURE
     1 ZQH         1 TEMP              0 ****  ****    0 ROOT
