@<TRIPOS>MOLECULE
ZQH
   75    80     1     0     0
SMALL
abcg2


@<TRIPOS>ATOM
      1 C01        -46.4420    13.2340    -5.9900 c6         1 ZQH      -0.027000
      2 C02        -47.2230    12.7320    -7.2070 c6         1 ZQH      -0.060900
      3 C03        -46.3040    12.6580    -8.4300 c6         1 ZQH       0.000300
      4 C04        -45.7150    14.0610    -8.6760 c6         1 ZQH      -0.051400
      5 C05        -44.9110    14.5790    -7.4650 c6         1 ZQH      -0.112000
      6 C06        -45.8860    14.6330    -6.2730 c6         1 ZQH      -0.060900
      7 C07        -45.2950    12.3000    -5.7180 c2         1 ZQH      -0.099400
      8 C08        -45.1610    11.6840    -8.1080 c6         1 ZQH      -0.060900
      9 C09        -43.7780    13.5630    -7.2140 c6         1 ZQH      -0.060900
     10 C10        -44.3720    12.1850    -6.8980 c6         1 ZQH      -0.027000
     11 C11        -47.0350    12.1900    -9.6800 ca         1 ZQH      -0.064300
     12 C12        -48.3930    11.8810    -9.6890 ca         1 ZQH      -0.107000
     13 C13        -49.0290    11.4420   -10.8460 ca         1 ZQH      -0.110500
     14 C14        -48.3170    11.3000   -12.0270 ca         1 ZQH      -0.111000
     15 C15        -46.9610    11.6050   -12.0380 ca         1 ZQH      -0.110500
     16 C16        -46.3350    12.0430   -10.8820 ca         1 ZQH      -0.107000
     17 C17        -44.3630    15.9750    -7.8130 c          1 ZQH       0.614100
     18 C20        -43.1840    16.3050    -5.5830 c6         1 ZQH       0.110000
     19 C21        -41.6630    16.2900    -5.5260 c6         1 ZQH      -0.136400
     20 C22        -41.0460    17.6140    -5.9850 c6         1 ZQH       0.166500
     21 C23        -41.6070    18.0500    -7.3540 c6         1 ZQH      -0.052000
     22 C24        -43.1390    18.0050    -7.2700 c6         1 ZQH       0.087000
     23 C26        -41.2040    19.4920    -7.6520 c3         1 ZQH      -0.079600
     24 C27        -41.1170    17.1470    -8.4870 c3         1 ZQH      -0.079600
     25 C28        -45.1100    11.6300    -4.5820 c2         1 ZQH      -0.223200
     26 C29        -46.0100    11.6960    -3.3750 c3         1 ZQH       0.007100
     27 C30        -47.3760    11.0750    -3.5600 ca         1 ZQH      -0.075300
     28 C31        -47.5590     9.9250    -4.3260 ca         1 ZQH      -0.109000
     29 C32        -48.8150     9.3500    -4.4580 ca         1 ZQH      -0.109000
     30 C33        -49.9160     9.9170    -3.8290 ca         1 ZQH      -0.113000
     31 C34        -49.7470    11.0640    -3.0650 ca         1 ZQH      -0.109000
     32 C35        -48.4880    11.6340    -2.9340 ca         1 ZQH      -0.109000
     33 N18        -43.6440    16.6890    -6.9090 n          1 ZQH      -0.408800
     34 O19        -44.5980    16.4470    -8.9200 o          1 ZQH      -0.607100
     35 H1         -47.1170    13.2920    -5.1340 hc         1 ZQH       0.058700
     36 H2         -48.0560    13.4150    -7.3960 hc         1 ZQH       0.049200
     37 H3         -47.6510    11.7490    -6.9870 hc         1 ZQH       0.049200
     38 H4         -45.0710    14.0380    -9.5580 hc         1 ZQH       0.060700
     39 H5         -46.5330    14.7480    -8.9050 hc         1 ZQH       0.060700
     40 H6         -45.4210    15.0130    -5.3650 hc         1 ZQH       0.046700
     41 H7         -46.7080    15.3170    -6.5100 hc         1 ZQH       0.046700
     42 H8         -45.5680    10.6860    -7.9120 hc         1 ZQH       0.049200
     43 H9         -44.4820    11.5900    -8.9600 hc         1 ZQH       0.049200
     44 H10        -43.1510    13.4980    -8.1090 hc         1 ZQH       0.046700
     45 H11        -43.1210    13.8550    -6.3960 hc         1 ZQH       0.046700
     46 H12        -43.5620    11.4860    -6.6730 hc         1 ZQH       0.058700
     47 H13        -48.9820    11.9740    -8.7860 ha         1 ZQH       0.111500
     48 H14        -50.0860    11.2090   -10.8170 ha         1 ZQH       0.110500
     49 H15        -48.8090    10.9560   -12.9270 ha         1 ZQH       0.111000
     50 H16        -46.3880    11.4990   -12.9500 ha         1 ZQH       0.110500
     51 H17        -45.2760    12.2690   -10.9240 ha         1 ZQH       0.111500
     52 H18        -43.5730    17.0370    -4.8660 h1         1 ZQH       0.051200
     53 H19        -43.5760    15.3430    -5.2800 h1         1 ZQH       0.051200
     54 H20        -41.2830    15.4650    -6.1380 hc         1 ZQH       0.045700
     55 H21        -41.3520    16.0870    -4.4970 hc         1 ZQH       0.045700
     56 H22        -41.3600    18.3830    -5.2670 h1         1 ZQH       0.053700
     57 H23        -43.4740    18.7150    -6.5040 h1         1 ZQH       0.061700
     58 H24        -43.5760    18.3160    -8.2150 h1         1 ZQH       0.061700
     59 H25        -41.5660    20.1740    -6.8790 hc         1 ZQH       0.038200
     60 H26        -40.1210    19.5920    -7.7040 hc         1 ZQH       0.038200
     61 H27        -41.6200    19.8210    -8.6070 hc         1 ZQH       0.038200
     62 H28        -41.3730    16.0980    -8.3330 hc         1 ZQH       0.038200
     63 H29        -41.5610    17.4550    -9.4350 hc         1 ZQH       0.038200
     64 H30        -40.0340    17.2100    -8.6010 hc         1 ZQH       0.038200
     65 H31        -44.2460    10.9750    -4.5110 ha         1 ZQH       0.170000
     66 H32        -45.5120    11.1940    -2.5410 hc         1 ZQH       0.050200
     67 H33        -46.1400    12.7330    -3.0510 hc         1 ZQH       0.050200
     68 H34        -46.7120     9.4790    -4.8320 ha         1 ZQH       0.111500
     69 H35        -48.9350     8.4560    -5.0580 ha         1 ZQH       0.111500
     70 H36        -50.8970     9.4720    -3.9370 ha         1 ZQH       0.112000
     71 H37        -50.5980    11.5200    -2.5740 ha         1 ZQH       0.111500
     72 H38        -48.3680    12.5340    -2.3410 ha         1 ZQH       0.111500
     73 N25        -39.5910    17.6090    -5.9790 n8         1 ZQH      -0.987200
     74 H39        -39.2630    17.5030    -5.0270 hn         1 ZQH       0.391500
     75 H40        -39.2500    16.7930    -6.4740 hn         1 ZQH       0.391500
@<TRIPOS>BOND
     1     1     2 1   
     2     1     6 1   
     3     1     7 1   
     4     1    35 1   
     5     2     3 1   
     6     2    36 1   
     7     2    37 1   
     8     3     4 1   
     9     3     8 1   
    10     3    11 1   
    11     4     5 1   
    12     4    38 1   
    13     4    39 1   
    14     5     6 1   
    15     5     9 1   
    16     5    17 1   
    17     6    40 1   
    18     6    41 1   
    19     7    10 1   
    20     7    25 2   
    21     8    10 1   
    22     8    42 1   
    23     8    43 1   
    24     9    10 1   
    25     9    44 1   
    26     9    45 1   
    27    10    46 1   
    28    11    12 ar  
    29    11    16 ar  
    30    12    13 ar  
    31    12    47 1   
    32    13    14 ar  
    33    13    48 1   
    34    14    15 ar  
    35    14    49 1   
    36    15    16 ar  
    37    15    50 1   
    38    16    51 1   
    39    17    33 1   
    40    17    34 2   
    41    18    19 1   
    42    18    33 1   
    43    18    52 1   
    44    18    53 1   
    45    19    20 1   
    46    19    54 1   
    47    19    55 1   
    48    20    21 1   
    49    20    56 1   
    50    20    73 1   
    51    21    22 1   
    52    21    23 1   
    53    21    24 1   
    54    22    33 1   
    55    22    57 1   
    56    22    58 1   
    57    23    59 1   
    58    23    60 1   
    59    23    61 1   
    60    24    62 1   
    61    24    63 1   
    62    24    64 1   
    63    25    26 1   
    64    25    65 1   
    65    26    27 1   
    66    26    66 1   
    67    26    67 1   
    68    27    28 ar  
    69    27    32 ar  
    70    28    29 ar  
    71    28    68 1   
    72    29    30 ar  
    73    29    69 1   
    74    30    31 ar  
    75    30    70 1   
    76    31    32 ar  
    77    31    71 1   
    78    32    72 1   
    79    73    74 1   
    80    73    75 1   
@<TRIPOS>SUBSTRUCTURE
     1 ZQH         1 TEMP              0 ****  ****    0 ROOT
