@<TRIPOS>MOLECULE
ZQJ
   23    24     1     0     0
SMALL
No Charge or Current Charge


@<TRIPOS>ATOM
      1 C10         37.6850   -87.3640    -0.1150 cc         1 ZQJ      -0.274200
      2 C01         35.2130   -84.5030    -0.1780 c3         1 ZQJ       0.096300
      3 N02         36.0620   -85.6320     0.2550 n          1 ZQJ      -0.120800
      4 N03         35.9450   -85.9780     1.5920 nc         1 ZQJ      -0.426300
      5 C04         36.6780   -86.9870     2.0670 cd         1 ZQJ       0.346600
      6 C05         36.5040   -87.3600     3.5220 c6         1 ZQJ      -0.135700
      7 C06         37.6390   -88.2710     4.0270 c6         1 ZQJ       0.151800
      8 N07         37.8820   -89.3600     3.0590 n7         1 ZQJ      -0.846400
      9 C08         38.4320   -88.8620     1.7790 c6         1 ZQJ       0.193000
     10 C09         37.5890   -87.7350     1.2190 cd         1 ZQJ      -0.163800
     11 C11         36.9040   -86.2610    -0.6920 c          1 ZQJ       0.530200
     12 O12         36.9790   -85.9250    -1.8680 o          1 ZQJ      -0.545000
     13 H1          38.3480   -87.8680    -0.8090 ha         1 ZQJ       0.212000
     14 H2          34.6190   -84.1200     0.6610 h1         1 ZQJ       0.058033
     15 H3          35.8460   -83.6940    -0.5640 h1         1 ZQJ       0.058033
     16 H4          34.5330   -84.8370    -0.9720 h1         1 ZQJ       0.058033
     17 H5          36.4570   -86.4600     4.1490 hc         1 ZQJ       0.065700
     18 H6          35.5430   -87.8750     3.6510 hc         1 ZQJ       0.065700
     19 H7          37.3640   -88.6900     5.0070 h1         1 ZQJ       0.061200
     20 H8          38.5590   -87.6820     4.1650 h1         1 ZQJ       0.061200
     21 H9          36.9900   -89.8360     2.8730 hn         1 ZQJ       0.415000
     22 H11         38.4900   -89.6920     1.0570 h1         1 ZQJ       0.070200
     23 H12         39.4600   -88.5020     1.9380 h1         1 ZQJ       0.070200
@<TRIPOS>BOND
     1     1    10 2   
     2     1    11 1   
     3     1    13 1   
     4     2     3 1   
     5     2    14 1   
     6     2    15 1   
     7     2    16 1   
     8     3     4 1   
     9     3    11 1   
    10     4     5 2   
    11     5     6 1   
    12     5    10 1   
    13     6     7 1   
    14     6    17 1   
    15     6    18 1   
    16     7     8 1   
    17     7    19 1   
    18     7    20 1   
    19     8     9 1   
    20     8    21 1   
    21     9    10 1   
    22     9    22 1   
    23     9    23 1   
    24    11    12 2   
@<TRIPOS>SUBSTRUCTURE
     1 ZQJ         1 TEMP              0 ****  ****    0 ROOT
