@<TRIPOS>MOLECULE
ZQJ
   23    24     1     0     0
SMALL
bcc


@<TRIPOS>ATOM
      1 C10         37.6520   -87.3770    -0.1070 cc         1 ZQJ      -0.224200
      2 C01         35.2810   -84.5220    -0.1410 c3         1 ZQJ       0.096300
      3 N02         36.0880   -85.6510     0.2890 n          1 ZQJ      -0.187800
      4 N03         35.9730   -85.9940     1.5650 nc         1 ZQJ      -0.426300
      5 C04         36.6580   -86.9900     2.0260 cd         1 ZQJ       0.346600
      6 C05         36.4620   -87.3690     3.4670 c6         1 ZQJ      -0.135700
      7 C06         37.6200   -88.2250     3.9750 c6         1 ZQJ       0.151800
      8 N07         37.9410   -89.3210     3.0790 n7         1 ZQJ      -0.791200
      9 C08         38.3910   -88.8400     1.7940 c6         1 ZQJ       0.193000
     10 C09         37.5550   -87.7340     1.1940 cd         1 ZQJ      -0.163800
     11 C11         36.8890   -86.2800    -0.6410 c          1 ZQJ       0.672700
     12 O12         36.9170   -85.8950    -1.8060 o          1 ZQJ      -0.620500
     13 H1          38.3120   -87.9010    -0.7890 ha         1 ZQJ       0.162000
     14 H2          34.7430   -84.1490     0.7230 h1         1 ZQJ       0.058033
     15 H3          35.9090   -83.7310    -0.5460 h1         1 ZQJ       0.058033
     16 H4          34.5670   -84.8250    -0.9060 h1         1 ZQJ       0.058033
     17 H5          36.3380   -86.4720     4.0760 hc         1 ZQJ       0.065700
     18 H6          35.5330   -87.9420     3.5590 hc         1 ZQJ       0.065700
     19 H7          37.3800   -88.6220     4.9620 h1         1 ZQJ       0.061200
     20 H8          38.5170   -87.6100     4.0930 h1         1 ZQJ       0.061200
     21 H9          37.1280   -89.9150     2.9610 hn         1 ZQJ       0.359800
     22 H11         38.4530   -89.6740     1.0930 h1         1 ZQJ       0.070200
     23 H12         39.4120   -88.4550     1.9010 h1         1 ZQJ       0.070200
@<TRIPOS>BOND
     1     1    10 2   
     2     1    11 1   
     3     1    13 1   
     4     2     3 1   
     5     2    14 1   
     6     2    15 1   
     7     2    16 1   
     8     3     4 1   
     9     3    11 1   
    10     4     5 2   
    11     5     6 1   
    12     5    10 1   
    13     6     7 1   
    14     6    17 1   
    15     6    18 1   
    16     7     8 1   
    17     7    19 1   
    18     7    20 1   
    19     8     9 1   
    20     8    21 1   
    21     9    10 1   
    22     9    22 1   
    23     9    23 1   
    24    11    12 2   
@<TRIPOS>SUBSTRUCTURE
     1 ZQJ         1 TEMP              0 ****  ****    0 ROOT
