@<TRIPOS>MOLECULE
ZQK
   52    55     1     0     0
SMALL
abcg2


@<TRIPOS>ATOM
      1 C10         41.2510    55.5870    32.9210 c6         1 ZQK       0.002200
      2 C13         42.6110    53.9190    31.5010 c6         1 ZQK      -0.084400
      3 C20         43.3580    56.2940    31.6250 c6         1 ZQK      -0.049200
      4 C21         38.2050    57.8070    33.8760 c5         1 ZQK      -0.061700
      5 C22         37.7870    59.2110    34.3120 c5         1 ZQK      -0.067400
      6 C24         36.1580    57.5240    34.9840 c          1 ZQK       0.581100
      7 C02         37.5260    56.8810    34.8890 c5         1 ZQK      -0.151000
      8 C03         37.5790    55.4540    34.3690 c6         1 ZQK      -0.051400
      9 C04         39.0330    55.0530    34.1080 c6         1 ZQK      -0.072400
     10 C05         39.7830    56.0190    33.1760 c6         1 ZQK      -0.048700
     11 C06         39.6700    57.4830    33.6390 c6         1 ZQK      -0.040700
     12 C07         40.2540    58.4120    32.5830 c6         1 ZQK      -0.030200
     13 C08         41.5460    57.9130    32.0270 c2         1 ZQK      -0.240200
     14 C09         42.0130    56.6760    32.1820 c2         1 ZQK      -0.065400
     15 C11         41.9820    55.2890    34.2420 c3         1 ZQK      -0.077100
     16 C12         41.2410    54.3260    32.0260 c6         1 ZQK      -0.055400
     17 C14         43.3030    55.0470    30.7550 c6         1 ZQK       0.234300
     18 C23         36.3130    59.0130    34.6980 c5         1 ZQK      -0.192400
     19 O15         42.5750    55.3570    29.5570 os         1 ZQK      -0.596700
     20 O25         35.1200    56.9630    35.2400 o          1 ZQK      -0.525100
     21 S16         43.3420    55.1280    28.1270 s6         1 ZQK       1.495300
     22 H131        42.5210    53.0450    30.8510 hc         1 ZQK       0.042200
     23 H132        43.2590    53.6170    32.3300 hc         1 ZQK       0.042200
     24 H201        44.0600    56.0870    32.4400 hc         1 ZQK       0.047200
     25 H202        43.7850    57.1240    31.0570 hc         1 ZQK       0.047200
     26 H211        37.6960    57.6240    32.9160 hc         1 ZQK       0.051700
     27 H222        38.3790    59.5540    35.1630 hc         1 ZQK       0.047700
     28 H221        37.9080    59.9480    33.5180 hc         1 ZQK       0.047700
     29 H031        37.0040    55.3860    33.4400 hc         1 ZQK       0.046200
     30 H032        37.1230    54.7560    35.0770 hc         1 ZQK       0.046200
     31 H042        39.0480    54.0470    33.6830 hc         1 ZQK       0.040200
     32 H041        39.5540    54.9790    35.0650 hc         1 ZQK       0.040200
     33 H051        39.2730    55.9800    32.2020 hc         1 ZQK       0.058700
     34 H061        40.2310    57.6200    34.5710 hc         1 ZQK       0.047700
     35 H071        40.4000    59.4130    33.0020 hc         1 ZQK       0.037700
     36 H072        39.5300    58.5430    31.7680 hc         1 ZQK       0.037700
     37 H081        42.1400    58.6270    31.4610 ha         1 ZQK       0.177000
     38 H111        41.6240    54.3670    34.7030 hc         1 ZQK       0.026033
     39 H113        43.0560    55.1710    34.0990 hc         1 ZQK       0.026033
     40 H112        41.8420    56.0970    34.9610 hc         1 ZQK       0.026033
     41 H122        40.5690    54.5040    31.1810 hc         1 ZQK       0.041700
     42 H121        40.8140    53.4890    32.5830 hc         1 ZQK       0.041700
     43 H141        44.3260    54.7440    30.5120 h1         1 ZQK       0.049700
     44 H232        35.9890    59.6060    35.5550 hc         1 ZQK       0.065200
     45 H231        35.6460    59.2730    33.8710 hc         1 ZQK       0.065200
     46 C01         38.1080    56.9900    36.3110 c3         1 ZQK      -0.075100
     47 H012        37.5910    56.2960    36.9750 hc         1 ZQK       0.037033
     48 O17         43.5980    53.6870    28.0380 o          1 ZQK      -0.712533
     49 O18         44.5650    55.9350    28.1970 o          1 ZQK      -0.712533
     50 O19         42.3390    55.6250    27.1880 o          1 ZQK      -0.712533
     51 H013        39.1690    56.7450    36.3400 hc         1 ZQK       0.037033
     52 H011        38.0010    57.9890    36.7340 hc         1 ZQK       0.037033
@<TRIPOS>BOND
     1     1    10 1   
     2     1    14 1   
     3     1    15 1   
     4     1    16 1   
     5     2    16 1   
     6     2    17 1   
     7     2    22 1   
     8     2    23 1   
     9     3    14 1   
    10     3    17 1   
    11     3    24 1   
    12     3    25 1   
    13     4     5 1   
    14     4     7 1   
    15     4    11 1   
    16     4    26 1   
    17     5    18 1   
    18     5    27 1   
    19     5    28 1   
    20     6     7 1   
    21     6    18 1   
    22     6    20 2   
    23     7     8 1   
    24     7    46 1   
    25     8     9 1   
    26     8    29 1   
    27     8    30 1   
    28     9    10 1   
    29     9    31 1   
    30     9    32 1   
    31    10    11 1   
    32    10    33 1   
    33    11    12 1   
    34    11    34 1   
    35    12    13 1   
    36    12    35 1   
    37    12    36 1   
    38    13    14 2   
    39    13    37 1   
    40    15    38 1   
    41    15    39 1   
    42    15    40 1   
    43    16    41 1   
    44    16    42 1   
    45    17    19 1   
    46    17    43 1   
    47    18    44 1   
    48    18    45 1   
    49    19    21 1   
    50    21    48 1   
    51    21    49 1   
    52    21    50 1   
    53    46    47 1   
    54    46    51 1   
    55    46    52 1   
@<TRIPOS>SUBSTRUCTURE
     1 ZQK         1 TEMP              0 ****  ****    0 ROOT
