@<TRIPOS>MOLECULE
ZQK
   52    55     1     0     0
SMALL
No Charge or Current Charge


@<TRIPOS>ATOM
      1 C10         41.3000    55.5970    32.9250 c6         1 ZQK       0.002200
      2 C13         42.7490    53.8820    31.5820 c6         1 ZQK      -0.084400
      3 C20         43.3950    56.3060    31.5200 c6         1 ZQK      -0.049200
      4 C21         38.1550    57.8450    33.8680 c5         1 ZQK      -0.061700
      5 C22         37.7800    59.2680    34.3820 c5         1 ZQK      -0.067400
      6 C24         36.0340    57.5500    34.8530 c          1 ZQK       0.581100
      7 C02         37.4330    56.8980    34.8710 c5         1 ZQK      -0.151000
      8 C03         37.5020    55.4520    34.2990 c6         1 ZQK      -0.051400
      9 C04         38.9730    55.0100    34.0470 c6         1 ZQK      -0.072400
     10 C05         39.7840    56.0130    33.1420 c6         1 ZQK      -0.048700
     11 C06         39.6530    57.4960    33.6390 c6         1 ZQK      -0.040700
     12 C07         40.2850    58.4670    32.6070 c6         1 ZQK      -0.030200
     13 C08         41.5890    57.9600    32.0190 c2         1 ZQK      -0.240200
     14 C09         42.0470    56.7000    32.1390 c2         1 ZQK      -0.065400
     15 C11         42.0580    55.4280    34.2900 c3         1 ZQK      -0.077100
     16 C12         41.3430    54.2520    32.1200 c6         1 ZQK      -0.055400
     17 C14         43.3500    54.9970    30.6920 c6         1 ZQK       0.234300
     18 C23         36.3160    59.0650    34.9060 c5         1 ZQK      -0.192400
     19 O15         42.5350    55.1830    29.5190 os         1 ZQK      -0.596700
     20 O25         34.9730    57.0220    34.5430 o          1 ZQK      -0.525100
     21 S16         43.2450    55.0130    28.0490 s6         1 ZQK       1.495300
     22 H131        42.6860    52.9500    31.0030 hc         1 ZQK       0.042200
     23 H132        43.4300    53.6670    32.4150 hc         1 ZQK       0.042200
     24 H201        44.1400    56.1930    32.3190 hc         1 ZQK       0.047200
     25 H202        43.7780    57.1170    30.8860 hc         1 ZQK       0.047200
     26 H211        37.6980    57.7210    32.8760 hc         1 ZQK       0.051700
     27 H222        38.4520    59.5980    35.1840 hc         1 ZQK       0.047700
     28 H221        37.8350    60.0210    33.5880 hc         1 ZQK       0.047700
     29 H031        36.9490    55.4010    33.3500 hc         1 ZQK       0.046200
     30 H032        37.0060    54.7450    34.9790 hc         1 ZQK       0.046200
     31 H042        38.9510    54.0170    33.5800 hc         1 ZQK       0.040200
     32 H041        39.4680    54.8690    35.0150 hc         1 ZQK       0.040200
     33 H051        39.3030    55.9860    32.1540 hc         1 ZQK       0.058700
     34 H061        40.1850    57.6140    34.5900 hc         1 ZQK       0.047700
     35 H071        40.4550    59.4430    33.0820 hc         1 ZQK       0.037700
     36 H072        39.5860    58.6480    31.7780 hc         1 ZQK       0.037700
     37 H081        42.1650    58.7020    31.4650 ha         1 ZQK       0.177000
     38 H111        41.6630    54.5950    34.8800 hc         1 ZQK       0.026033
     39 H113        43.1230    55.2190    34.1470 hc         1 ZQK       0.026033
     40 H112        42.0000    56.3310    34.9070 hc         1 ZQK       0.026033
     41 H122        40.6510    54.3080    31.2690 hc         1 ZQK       0.041700
     42 H121        40.9830    53.4230    32.7430 hc         1 ZQK       0.041700
     43 H141        44.3760    54.7150    30.4080 h1         1 ZQK       0.049700
     44 H232        36.2780    59.3790    35.9540 hc         1 ZQK       0.065200
     45 H231        35.5490    59.6160    34.3510 hc         1 ZQK       0.065200
     46 C01         37.9920    56.9050    36.3370 c3         1 ZQK      -0.075100
     47 H012        37.4200    56.2190    36.9730 hc         1 ZQK       0.037033
     48 O17         43.7250    53.6230    28.0420 o          1 ZQK      -0.712533
     49 O18         44.3170    56.0190    28.0500 o          1 ZQK      -0.712533
     50 O19         42.1580    55.2840    27.0980 o          1 ZQK      -0.712533
     51 H013        39.0410    56.5980    36.3880 hc         1 ZQK       0.037033
     52 H011        37.9360    57.8920    36.8090 hc         1 ZQK       0.037033
@<TRIPOS>BOND
     1     1    10 1   
     2     1    14 1   
     3     1    15 1   
     4     1    16 1   
     5     2    16 1   
     6     2    17 1   
     7     2    22 1   
     8     2    23 1   
     9     3    14 1   
    10     3    17 1   
    11     3    24 1   
    12     3    25 1   
    13     4     5 1   
    14     4     7 1   
    15     4    11 1   
    16     4    26 1   
    17     5    18 1   
    18     5    27 1   
    19     5    28 1   
    20     6     7 1   
    21     6    18 1   
    22     6    20 2   
    23     7     8 1   
    24     7    46 1   
    25     8     9 1   
    26     8    29 1   
    27     8    30 1   
    28     9    10 1   
    29     9    31 1   
    30     9    32 1   
    31    10    11 1   
    32    10    33 1   
    33    11    12 1   
    34    11    34 1   
    35    12    13 1   
    36    12    35 1   
    37    12    36 1   
    38    13    14 2   
    39    13    37 1   
    40    15    38 1   
    41    15    39 1   
    42    15    40 1   
    43    16    41 1   
    44    16    42 1   
    45    17    19 1   
    46    17    43 1   
    47    18    44 1   
    48    18    45 1   
    49    19    21 1   
    50    21    48 1   
    51    21    49 1   
    52    21    50 1   
    53    46    47 1   
    54    46    51 1   
    55    46    52 1   
@<TRIPOS>SUBSTRUCTURE
     1 ZQK         1 TEMP              0 ****  ****    0 ROOT
