@<TRIPOS>MOLECULE
ZQM
   28    28     1     0     0
SMALL
No Charge or Current Charge


@<TRIPOS>ATOM
      1 C10         28.6210   -46.3380    -2.3940 ca         1 ZQM       0.026000
      2 C01         23.6770   -45.6830    -0.4100 c3         1 ZQM      -0.088100
      3 C02         25.0310   -45.1490    -0.9150 c3         1 ZQM       0.091300
      4 C03         24.9260   -44.5320    -2.3260 c3         1 ZQM      -0.088100
      5 S04         26.2640   -46.5310    -0.9160 ss         1 ZQM      -0.263000
      6 C05         27.8120   -45.7530    -1.3930 ca         1 ZQM      -0.170000
      7 C06         28.2210   -44.5640    -0.7580 ca         1 ZQM      -0.045000
      8 C07         29.4270   -43.9470    -1.1230 ca         1 ZQM      -0.148000
      9 C08         30.2320   -44.5170    -2.1200 ca         1 ZQM      -0.065000
     10 C09         29.8340   -45.7070    -2.7520 ca         1 ZQM      -0.132000
     11 N11         28.1640   -47.5410    -2.9980 ns         1 ZQM      -0.161000
     12 C12         28.6920   -48.3470    -3.9900 c          1 ZQM       0.646100
     13 N13         27.9250   -49.4190    -4.2740 nt         1 ZQM      -0.605000
     14 O14         29.7390   -48.1630    -4.5860 o          1 ZQM      -0.620100
     15 H1          23.7800   -46.0990     0.5990 hc         1 ZQM       0.045033
     16 H2          22.9340   -44.8770    -0.3710 hc         1 ZQM       0.045033
     17 H3          23.2970   -46.4710    -1.0710 hc         1 ZQM       0.045033
     18 H4          25.3730   -44.3750    -0.2170 h1         1 ZQM       0.069700
     19 H5          24.1910   -43.7190    -2.3370 hc         1 ZQM       0.045033
     20 H6          25.8910   -44.1190    -2.6440 hc         1 ZQM       0.045033
     21 H7          24.6170   -45.2870    -3.0590 hc         1 ZQM       0.045033
     22 H8          27.6120   -44.1200     0.0260 ha         1 ZQM       0.123000
     23 H9          29.7390   -43.0290    -0.6290 ha         1 ZQM       0.118000
     24 H10         31.1680   -44.0390    -2.4020 ha         1 ZQM       0.116000
     25 H11         30.4820   -46.1210    -3.5160 ha         1 ZQM       0.141000
     26 H12         27.2820   -47.8620    -2.6250 hn         1 ZQM       0.164000
     27 H13         28.2320   -50.0640    -4.9870 hn         1 ZQM       0.312000
     28 H14         27.0580   -49.5740    -3.7830 hn         1 ZQM       0.312000
@<TRIPOS>BOND
     1     1     6 ar  
     2     1    10 ar  
     3     1    11 1   
     4     2     3 1   
     5     2    15 1   
     6     2    16 1   
     7     2    17 1   
     8     3     4 1   
     9     3     5 1   
    10     3    18 1   
    11     4    19 1   
    12     4    20 1   
    13     4    21 1   
    14     5     6 1   
    15     6     7 ar  
    16     7     8 ar  
    17     7    22 1   
    18     8     9 ar  
    19     8    23 1   
    20     9    10 ar  
    21     9    24 1   
    22    10    25 1   
    23    11    12 1   
    24    11    26 1   
    25    12    13 1   
    26    12    14 2   
    27    13    27 1   
    28    13    28 1   
@<TRIPOS>SUBSTRUCTURE
     1 ZQM         1 TEMP              0 ****  ****    0 ROOT
