@<TRIPOS>MOLECULE
ZQM
   28    28     1     0     0
SMALL
bcc


@<TRIPOS>ATOM
      1 C10         28.5860   -46.2370    -2.0860 ca         1 ZQM       0.118600
      2 C01         23.8100   -45.6930    -0.6800 c3         1 ZQM      -0.088100
      3 C02         25.1590   -45.2500    -1.2280 c3         1 ZQM       0.043400
      4 C03         25.2350   -45.3980    -2.7350 c3         1 ZQM      -0.088100
      5 S04         26.4260   -46.2540    -0.3500 ss         1 ZQM      -0.342000
      6 C05         27.9420   -45.6090    -1.0050 ca         1 ZQM      -0.043100
      7 C06         28.5170   -44.4920    -0.4060 ca         1 ZQM      -0.063000
      8 C07         29.7110   -43.9690    -0.8730 ca         1 ZQM      -0.166000
      9 C08         30.3500   -44.5940    -1.9350 ca         1 ZQM      -0.083000
     10 C09         29.8040   -45.7190    -2.5320 ca         1 ZQM      -0.150000
     11 N11         28.0180   -47.3780    -2.6430 ns         1 ZQM      -0.487100
     12 C12         28.0180   -47.7030    -3.9830 c          1 ZQM       0.780100
     13 N13         27.2360   -48.7720    -4.2740 nt         1 ZQM      -0.672000
     14 O14         28.6340   -47.0780    -4.8310 o          1 ZQM      -0.620100
     15 H1          23.7460   -45.5650     0.4010 hc         1 ZQM       0.045033
     16 H2          23.0180   -45.0980    -1.1350 hc         1 ZQM       0.045033
     17 H3          23.6170   -46.7410    -0.9150 hc         1 ZQM       0.045033
     18 H4          25.3410   -44.2100    -0.9490 h1         1 ZQM       0.069700
     19 H5          24.4660   -44.7790    -3.2000 hc         1 ZQM       0.045033
     20 H6          26.1970   -45.0750    -3.1310 hc         1 ZQM       0.045033
     21 H7          25.0660   -46.4320    -3.0390 hc         1 ZQM       0.045033
     22 H8          28.0110   -44.0310     0.4320 ha         1 ZQM       0.141000
     23 H9          30.1430   -43.0950    -0.4050 ha         1 ZQM       0.136000
     24 H10         31.2940   -44.2120    -2.3000 ha         1 ZQM       0.134000
     25 H11         30.3360   -46.2010    -3.3370 ha         1 ZQM       0.159000
     26 H12         27.2840   -47.7880    -2.0790 hn         1 ZQM       0.330500
     27 H13         27.3210   -49.1660    -5.1960 hn         1 ZQM       0.312000
     28 H14         26.9350   -49.4100    -3.5550 hn         1 ZQM       0.312000
@<TRIPOS>BOND
     1     1     6 ar  
     2     1    10 ar  
     3     1    11 1   
     4     2     3 1   
     5     2    15 1   
     6     2    16 1   
     7     2    17 1   
     8     3     4 1   
     9     3     5 1   
    10     3    18 1   
    11     4    19 1   
    12     4    20 1   
    13     4    21 1   
    14     5     6 1   
    15     6     7 ar  
    16     7     8 ar  
    17     7    22 1   
    18     8     9 ar  
    19     8    23 1   
    20     9    10 ar  
    21     9    24 1   
    22    10    25 1   
    23    11    12 1   
    24    11    26 1   
    25    12    13 1   
    26    12    14 2   
    27    13    27 1   
    28    13    28 1   
@<TRIPOS>SUBSTRUCTURE
     1 ZQM         1 TEMP              0 ****  ****    0 ROOT
