@<TRIPOS>MOLECULE
ZQN
   33    32     1     0     0
SMALL
abcg2


@<TRIPOS>ATOM
      1 CG1          3.6790     0.9800    -0.8320 c3         1 ZQN      -0.073100
      2 CB           2.4230     0.7900     0.0110 c3         1 ZQN      -0.055700
      3 CG2          2.6460     1.2800     1.4380 c3         1 ZQN      -0.073100
      4 CA           1.8720    -0.6540    -0.0390 c3         1 ZQN      -0.018300
      5 N            0.5350    -0.7180     0.5070 ns         1 ZQN      -0.466900
      6 C5          -0.5660    -0.3270    -0.1510 c          1 ZQN       0.632100
      7 O1          -0.5730     0.1260    -1.2820 o          1 ZQN      -0.595000
      8 O2          -1.6540    -0.5120     0.6090 os         1 ZQN      -0.483100
      9 C6          -2.9780    -0.0960     0.1970 c3         1 ZQN       0.225000
     10 C7          -3.8420    -0.4540     1.4010 c3         1 ZQN      -0.103100
     11 C8          -3.4510    -0.8800    -1.0220 c3         1 ZQN      -0.103100
     12 C9          -3.0360     1.4090    -0.0430 c3         1 ZQN      -0.103100
     13 C            2.7690    -1.6510     0.7380 c          1 ZQN       0.718000
     14 OXT          3.8440    -1.9600     0.1940 o          1 ZQN      -0.724500
     15 O            2.3450    -2.0430     1.8450 o          1 ZQN      -0.724500
     16 HG11         3.5340     0.6220    -1.8530 hc         1 ZQN       0.024200
     17 HG12         3.9380     2.0390    -0.8870 hc         1 ZQN       0.024200
     18 HG13         4.5320     0.4500    -0.4110 hc         1 ZQN       0.024200
     19 HB           1.6440     1.4160    -0.4360 hc         1 ZQN       0.026700
     20 HG21         1.7590     1.1490     2.0590 hc         1 ZQN       0.024200
     21 HG22         3.4740     0.7560     1.9200 hc         1 ZQN       0.024200
     22 HG23         2.8920     2.3440     1.4390 hc         1 ZQN       0.024200
     23 HA           1.8450    -0.9640    -1.0890 h1         1 ZQN       0.055700
     24 H            0.4680    -1.1330     1.4250 hn         1 ZQN       0.351500
     25 H10         -4.8790    -0.1790     1.2100 hc         1 ZQN       0.041033
     26 H11         -3.8120    -1.5250     1.6070 hc         1 ZQN       0.041033
     27 H12         -3.5140     0.0790     2.2960 hc         1 ZQN       0.041033
     28 H13         -4.5070    -0.6680    -1.1970 hc         1 ZQN       0.041033
     29 H14         -2.9030    -0.6160    -1.9240 hc         1 ZQN       0.041033
     30 H15         -3.3550    -1.9550    -0.8560 hc         1 ZQN       0.041033
     31 H16         -4.0760     1.7140    -0.1690 hc         1 ZQN       0.041033
     32 H17         -2.6350     1.9550     0.8120 hc         1 ZQN       0.041033
     33 H18         -2.4910     1.7100    -0.9350 hc         1 ZQN       0.041033
@<TRIPOS>BOND
     1     1     2 1   
     2     1    16 1   
     3     1    17 1   
     4     1    18 1   
     5     2     3 1   
     6     2     4 1   
     7     2    19 1   
     8     3    20 1   
     9     3    21 1   
    10     3    22 1   
    11     4     5 1   
    12     4    13 1   
    13     4    23 1   
    14     5     6 1   
    15     5    24 1   
    16     6     7 2   
    17     6     8 1   
    18     8     9 1   
    19     9    10 1   
    20     9    11 1   
    21     9    12 1   
    22    10    25 1   
    23    10    26 1   
    24    10    27 1   
    25    11    28 1   
    26    11    29 1   
    27    11    30 1   
    28    12    31 1   
    29    12    32 1   
    30    12    33 1   
    31    13    14 1   
    32    13    15 1   
@<TRIPOS>SUBSTRUCTURE
     1 ZQN         1 TEMP              0 ****  ****    0 ROOT
