@<TRIPOS>MOLECULE
ZQN
   33    32     1     0     0
SMALL
No Charge or Current Charge


@<TRIPOS>ATOM
      1 CG1          3.8610     0.9150    -0.7300 c3         1 ZQN      -0.073100
      2 CB           2.4870     0.8120    -0.0310 c3         1 ZQN      -0.055700
      3 CG2          2.5410     1.4110     1.3960 c3         1 ZQN      -0.073100
      4 CA           1.9100    -0.6390    -0.0760 c3         1 ZQN      -0.018300
      5 N            0.5210    -0.7060     0.4370 ns         1 ZQN      -0.466900
      6 C5          -0.5920    -0.2540    -0.2090 c          1 ZQN       0.632100
      7 O1          -0.5990     0.2300    -1.3300 o          1 ZQN      -0.595000
      8 O2          -1.6680    -0.4660     0.6080 os         1 ZQN      -0.483100
      9 C6          -3.0180    -0.0980     0.2340 c3         1 ZQN       0.225000
     10 C7          -3.8780    -0.5120     1.4500 c3         1 ZQN      -0.103100
     11 C8          -3.4530    -0.9050    -1.0170 c3         1 ZQN      -0.103100
     12 C9          -3.1020     1.4370     0.0270 c3         1 ZQN      -0.103100
     13 C            2.8110    -1.6930     0.6520 c          1 ZQN       0.718000
     14 OXT          3.5610    -2.3780    -0.0310 o          1 ZQN      -0.724500
     15 O            2.6150    -1.9110     1.8410 o          1 ZQN      -0.724500
     16 HG11         3.8070     0.5180    -1.7510 hc         1 ZQN       0.024200
     17 HG12         4.1840     1.9610    -0.7930 hc         1 ZQN       0.024200
     18 HG13         4.6280     0.3560    -0.1820 hc         1 ZQN       0.024200
     19 HB           1.8030     1.4450    -0.6090 hc         1 ZQN       0.026700
     20 HG21         1.5510     1.3980     1.8680 hc         1 ZQN       0.024200
     21 HG22         3.2350     0.8510     2.0340 hc         1 ZQN       0.024200
     22 HG23         2.8790     2.4530     1.3620 hc         1 ZQN       0.024200
     23 HA           1.8730    -0.9460    -1.1290 h1         1 ZQN       0.055700
     24 H            0.3670    -1.0990     1.3580 hn         1 ZQN       0.351500
     25 H10         -4.9350    -0.2760     1.2780 hc         1 ZQN       0.041033
     26 H11         -3.7960    -1.5890     1.6380 hc         1 ZQN       0.041033
     27 H12         -3.5550     0.0180     2.3550 hc         1 ZQN       0.041033
     28 H13         -4.5340    -0.8100    -1.1750 hc         1 ZQN       0.041033
     29 H14         -2.9610    -0.5470    -1.9280 hc         1 ZQN       0.041033
     30 H15         -3.2210    -1.9700    -0.8940 hc         1 ZQN       0.041033
     31 H16         -4.1490     1.7570    -0.0340 hc         1 ZQN       0.041033
     32 H17         -2.6340     1.9690     0.8640 hc         1 ZQN       0.041033
     33 H18         -2.6130     1.7530    -0.9010 hc         1 ZQN       0.041033
@<TRIPOS>BOND
     1     1     2 1   
     2     1    16 1   
     3     1    17 1   
     4     1    18 1   
     5     2     3 1   
     6     2     4 1   
     7     2    19 1   
     8     3    20 1   
     9     3    21 1   
    10     3    22 1   
    11     4     5 1   
    12     4    13 1   
    13     4    23 1   
    14     5     6 1   
    15     5    24 1   
    16     6     7 2   
    17     6     8 1   
    18     8     9 1   
    19     9    10 1   
    20     9    11 1   
    21     9    12 1   
    22    10    25 1   
    23    10    26 1   
    24    10    27 1   
    25    11    28 1   
    26    11    29 1   
    27    11    30 1   
    28    12    31 1   
    29    12    32 1   
    30    12    33 1   
    31    13    14 1   
    32    13    15 1   
@<TRIPOS>SUBSTRUCTURE
     1 ZQN         1 TEMP              0 ****  ****    0 ROOT
