@<TRIPOS>MOLECULE
ZQQ
   73    75     1     0     0
SMALL
abcg2


@<TRIPOS>ATOM
      1 C01        -54.7310    22.8670    16.0210 cc         1 ZQQ       0.331000
      2 C03        -55.4780    22.5080    14.0590 cd         1 ZQQ       0.233900
      3 C04        -55.8980    23.7620    14.4180 cc         1 ZQQ      -0.220000
      4 C07        -54.0370    22.6800    17.3100 c          1 ZQQ       0.542600
      5 C10        -52.7170    21.0210    18.5140 cc         1 ZQQ      -0.021400
      6 C11        -52.4460    21.6630    19.7080 cd         1 ZQQ      -0.182000
      7 C13        -51.5230    19.6450    19.8270 cd         1 ZQQ      -0.234600
      8 C14        -52.1300    19.7450    18.5880 cc         1 ZQQ      -0.177000
      9 C16        -50.8340    18.4960    20.4300 c          1 ZQQ       0.645700
     10 C19        -49.7200    16.4010    19.8540 cc         1 ZQQ      -0.021400
     11 C20        -49.5610    15.7910    21.0840 cd         1 ZQQ      -0.180000
     12 C22        -48.6760    14.4320    19.5630 cd         1 ZQQ      -0.232600
     13 C23        -49.1550    15.5420    18.8920 cc         1 ZQQ      -0.189000
     14 C25        -48.0460    13.2230    19.0110 c          1 ZQQ       0.639700
     15 C28        -46.8650    12.3050    17.0740 c3         1 ZQQ       0.112000
     16 C29        -47.9080    11.5800    16.2160 c3         1 ZQQ      -0.190400
     17 C30        -47.2630    10.3960    15.5270 c          1 ZQQ       0.600100
     18 C33        -46.1910     9.6820    13.4080 c3         1 ZQQ       0.104000
     19 C34        -44.8360    10.2600    13.0130 c3         1 ZQQ      -0.094400
     20 C35        -43.9220    10.5560    14.1950 c3         1 ZQQ       0.173800
     21 C37        -42.6910     8.4890    14.3180 c3         1 ZQQ       0.154600
     22 C38        -43.1020     9.7530    16.2960 c3         1 ZQQ       0.154600
     23 N02        -54.7550    21.9640    15.0640 nd         1 ZQQ      -0.672000
     24 N05        -55.4180    23.9820    15.6700 na         1 ZQQ      -0.114500
     25 N08        -53.4320    21.4810    17.4120 ns         1 ZQQ      -0.354100
     26 N12        -51.7310    20.8170    20.4930 na         1 ZQQ       0.073000
     27 N17        -50.3240    17.6150    19.5380 ns         1 ZQQ      -0.369100
     28 N21        -48.9370    14.5990    20.8910 na         1 ZQQ       0.074000
     29 N27        -47.4250    13.3990    17.8280 ns         1 ZQQ      -0.505900
     30 N31        -46.9550    10.5910    14.2330 ns         1 ZQQ      -0.508900
     31 N36        -43.6040     9.3860    14.9920 n3         1 ZQQ      -0.710600
     32 O09        -54.0220    23.5340    18.1840 o          1 ZQQ      -0.614100
     33 O18        -50.7400    18.3390    21.6400 o          1 ZQQ      -0.610100
     34 O26        -48.0870    12.1380    19.5800 o          1 ZQQ      -0.602100
     35 O32        -47.0170     9.3660    16.1420 o          1 ZQQ      -0.582100
     36 H1         -55.6640    21.9860    13.1340 h4         1 ZQQ       0.043100
     37 H2         -56.4870    24.5000    13.8980 h4         1 ZQQ       0.160000
     38 H3         -54.6970    25.6830    16.6700 h1         1 ZQQ       0.063367
     39 H4         -56.2380    25.8720    15.8240 h1         1 ZQQ       0.063367
     40 H5         -56.1740    24.9860    17.3520 h1         1 ZQQ       0.063367
     41 H6         -52.6970    22.6490    20.0530 h4         1 ZQQ       0.175000
     42 H7         -52.1830    18.9780    17.8290 ha         1 ZQQ       0.134000
     43 H8         -50.1920    20.9990    21.9120 h1         1 ZQQ       0.061033
     44 H9         -51.4310    22.2540    21.9440 h1         1 ZQQ       0.061033
     45 H10        -51.7880    20.6480    22.5910 h1         1 ZQQ       0.061033
     46 H11        -49.8310    16.1110    22.0740 h4         1 ZQQ       0.176000
     47 H12        -49.1340    15.7080    17.8260 ha         1 ZQQ       0.127000
     48 H13        -48.7610    14.2400    22.9150 h1         1 ZQQ       0.061367
     49 H14        -49.2110    12.8130    21.9720 h1         1 ZQQ       0.061367
     50 H15        -47.5480    13.4180    21.9340 h1         1 ZQQ       0.061367
     51 H16        -46.3920    11.6000    17.7590 h1         1 ZQQ       0.061200
     52 H17        -46.0780    12.7100    16.4380 h1         1 ZQQ       0.061200
     53 H18        -48.3460    12.2810    15.5030 hc         1 ZQQ       0.067700
     54 H19        -48.7110    11.2100    16.8550 hc         1 ZQQ       0.067700
     55 H20        -46.7650     9.4510    12.5070 h1         1 ZQQ       0.063700
     56 H21        -46.0660     8.7500    13.9550 h1         1 ZQQ       0.063700
     57 H22        -44.3600     9.5700    12.3120 hc         1 ZQQ       0.041200
     58 H23        -44.9850    11.1900    12.4580 hc         1 ZQQ       0.041200
     59 H24        -43.0090    11.0560    13.8270 h1         1 ZQQ       0.026200
     60 H25        -44.4180    11.2830    14.8450 h1         1 ZQQ       0.026200
     61 H26        -42.5150     7.6060    14.9340 h1         1 ZQQ       0.029200
     62 H27        -43.1090     8.1460    13.3720 h1         1 ZQQ       0.029200
     63 H28        -41.7140     8.9510    14.1050 h1         1 ZQQ       0.029200
     64 H29        -42.9250     8.8580    16.8940 h1         1 ZQQ       0.029200
     65 H30        -42.1580    10.3210    16.2610 h1         1 ZQQ       0.029200
     66 H31        -43.8380    10.3640    16.8230 h1         1 ZQQ       0.029200
     67 H32        -53.5170    20.8580    16.6210 hn         1 ZQQ       0.353500
     68 H33        -50.3460    17.8550    18.5590 hn         1 ZQQ       0.327500
     69 H34        -47.3770    14.3200    17.4260 hn         1 ZQQ       0.318500
     70 H35        -47.1920    11.4820    13.8250 hn         1 ZQQ       0.300500
     71 C06        -55.6400    25.1990    16.4310 c3         1 ZQQ       0.061900
     72 C15        -51.2580    21.1890    21.8130 c3         1 ZQQ       0.058900
     73 C24        -48.5940    13.7090    21.9820 c3         1 ZQQ       0.057900
@<TRIPOS>BOND
     1     1     4 1   
     2     1    23 2   
     3     1    24 1   
     4     2     3 2   
     5     2    23 1   
     6     2    36 1   
     7     3    24 1   
     8     3    37 1   
     9     4    25 1   
    10     4    32 2   
    11     5     6 2   
    12     5     8 1   
    13     5    25 1   
    14     6    26 1   
    15     6    41 1   
    16     7     8 2   
    17     7     9 1   
    18     7    26 1   
    19     8    42 1   
    20     9    27 1   
    21     9    33 2   
    22    10    11 2   
    23    10    13 1   
    24    10    27 1   
    25    11    28 1   
    26    11    46 1   
    27    12    13 2   
    28    12    14 1   
    29    12    28 1   
    30    13    47 1   
    31    14    29 1   
    32    14    34 2   
    33    15    16 1   
    34    15    29 1   
    35    15    51 1   
    36    15    52 1   
    37    16    17 1   
    38    16    53 1   
    39    16    54 1   
    40    17    30 1   
    41    17    35 2   
    42    18    19 1   
    43    18    30 1   
    44    18    55 1   
    45    18    56 1   
    46    19    20 1   
    47    19    57 1   
    48    19    58 1   
    49    20    31 1   
    50    20    59 1   
    51    20    60 1   
    52    21    31 1   
    53    21    61 1   
    54    21    62 1   
    55    21    63 1   
    56    22    31 1   
    57    22    64 1   
    58    22    65 1   
    59    22    66 1   
    60    24    71 1   
    61    25    67 1   
    62    26    72 1   
    63    27    68 1   
    64    28    73 1   
    65    29    69 1   
    66    30    70 1   
    67    38    71 1   
    68    39    71 1   
    69    40    71 1   
    70    43    72 1   
    71    44    72 1   
    72    45    72 1   
    73    48    73 1   
    74    49    73 1   
    75    50    73 1   
@<TRIPOS>SUBSTRUCTURE
     1 ZQQ         1 TEMP              0 ****  ****    0 ROOT
