@<TRIPOS>MOLECULE
ZQQ
   73    75     1     0     0
SMALL
No Charge or Current Charge


@<TRIPOS>ATOM
      1 C01        -53.1930    22.3800    15.3330 cc         1 ZQQ       0.331000
      2 C03        -52.6710    21.9550    13.2590 cd         1 ZQQ       0.233900
      3 C04        -53.4230    23.0960    13.2220 cc         1 ZQQ      -0.220000
      4 C07        -53.2880    22.2610    16.8360 c          1 ZQQ       0.542600
      5 C10        -52.4590    20.6960    18.6220 cc         1 ZQQ      -0.021400
      6 C11        -52.9670    21.2650    19.7560 cd         1 ZQQ      -0.182000
      7 C13        -51.7900    19.3830    20.3480 cd         1 ZQQ      -0.234600
      8 C14        -51.7390    19.5460    18.9810 cc         1 ZQQ      -0.177000
      9 C16        -51.1540    18.2850    21.1360 c          1 ZQQ       0.645700
     10 C19        -49.7560    16.2470    20.7230 cc         1 ZQQ      -0.021400
     11 C20        -49.5820    15.7620    21.9890 cd         1 ZQQ      -0.180000
     12 C22        -48.4920    14.3750    20.5180 cd         1 ZQQ      -0.232600
     13 C23        -49.0910    15.4010    19.8230 cc         1 ZQQ      -0.189000
     14 C25        -47.6890    13.2620    19.9360 c          1 ZQQ       0.639700
     15 C28        -46.8600    12.3520    17.7380 c3         1 ZQQ       0.112000
     16 C29        -47.7000    11.0850    17.4990 c3         1 ZQQ      -0.190400
     17 C30        -46.9440    10.1140    16.5970 c          1 ZQQ       0.600100
     18 C33        -46.8160     9.2350    14.2350 c3         1 ZQQ       0.104000
     19 C34        -46.4970    10.0990    12.9960 c3         1 ZQQ      -0.094400
     20 C35        -45.4910    11.2470    13.2590 c3         1 ZQQ       0.173800
     21 C37        -43.4040     9.9640    12.8290 c3         1 ZQQ       0.154600
     22 C38        -43.3550    11.9740    14.2360 c3         1 ZQQ       0.154600
     23 N02        -52.5290    21.5140    14.5560 nd         1 ZQQ      -0.672000
     24 N05        -53.7550    23.3690    14.5320 na         1 ZQQ      -0.114500
     25 N08        -52.6080    21.1500    17.3180 ns         1 ZQQ      -0.354100
     26 N12        -52.5580    20.4600    20.8270 na         1 ZQQ       0.073000
     27 N17        -50.4640    17.3820    20.3500 ns         1 ZQQ      -0.369100
     28 N21        -48.8020    14.6040    21.8710 na         1 ZQQ       0.074000
     29 N27        -47.5700    13.3280    18.5670 ns         1 ZQQ      -0.505900
     30 N31        -47.4290    10.0230    15.3110 ns         1 ZQQ      -0.508900
     31 N36        -44.1610    10.8250    13.7680 n3         1 ZQQ      -0.710600
     32 O09        -53.8910    23.0440    17.5680 o          1 ZQQ      -0.614100
     33 O18        -51.2370    18.1970    22.3540 o          1 ZQQ      -0.610100
     34 O26        -47.1740    12.3710    20.5940 o          1 ZQQ      -0.602100
     35 O32        -46.0030     9.4470    17.0000 o          1 ZQQ      -0.582100
     36 H1         -52.2250    21.4260    12.4240 h4         1 ZQQ       0.043100
     37 H2         -53.7320    23.7100    12.3860 h4         1 ZQQ       0.160000
     38 H3         -53.9770    25.1340    15.6710 h1         1 ZQQ       0.063367
     39 H4         -54.8680    25.1210    14.1220 h1         1 ZQQ       0.063367
     40 H5         -55.4630    24.1500    15.4980 h1         1 ZQQ       0.063367
     41 H6         -53.5710    22.1530    19.8950 h4         1 ZQQ       0.175000
     42 H7         -51.2340    18.9090    18.2610 ha         1 ZQQ       0.134000
     43 H8         -51.9730    20.8590    22.8120 h1         1 ZQQ       0.061033
     44 H9         -53.5050    21.6310    22.3090 h1         1 ZQQ       0.061033
     45 H10        -53.4600    19.8750    22.6400 h1         1 ZQQ       0.061033
     46 H11        -49.9350    16.1280    22.9450 h4         1 ZQQ       0.176000
     47 H12        -49.0740    15.5620    18.7490 ha         1 ZQQ       0.127000
     48 H13        -48.7680    14.1880    23.9420 h1         1 ZQQ       0.061367
     49 H14        -48.7720    12.7530    22.8770 h1         1 ZQQ       0.061367
     50 H15        -47.2860    13.7370    23.0500 h1         1 ZQQ       0.061367
     51 H16        -45.9130    12.0850    18.2270 h1         1 ZQQ       0.061200
     52 H17        -46.6200    12.8220    16.7740 h1         1 ZQQ       0.061200
     53 H18        -48.6480    11.3780    17.0330 hc         1 ZQQ       0.067700
     54 H19        -47.8880    10.6000    18.4630 hc         1 ZQQ       0.067700
     55 H20        -47.5130     8.4360    13.9480 h1         1 ZQQ       0.063700
     56 H21        -45.8930     8.7590    14.5910 h1         1 ZQQ       0.063700
     57 H22        -46.1240     9.4530    12.1940 hc         1 ZQQ       0.041200
     58 H23        -47.4310    10.5360    12.6220 hc         1 ZQQ       0.041200
     59 H24        -45.3640    11.8120    12.3250 h1         1 ZQQ       0.026200
     60 H25        -45.9530    11.9350    13.9800 h1         1 ZQQ       0.026200
     61 H26        -42.4320     9.6840    13.2580 h1         1 ZQQ       0.029200
     62 H27        -43.9470     9.0350    12.6150 h1         1 ZQQ       0.029200
     63 H28        -43.2210    10.4860    11.8800 h1         1 ZQQ       0.029200
     64 H29        -42.4130    11.6300    14.6840 h1         1 ZQQ       0.029200
     65 H30        -43.1150    12.6490    13.4040 h1         1 ZQQ       0.029200
     66 H31        -43.9010    12.5460    14.9980 h1         1 ZQQ       0.029200
     67 H32        -52.1680    20.6150    16.5740 hn         1 ZQQ       0.353500
     68 H33        -50.4980    17.6050    19.3650 hn         1 ZQQ       0.327500
     69 H34        -48.0280    14.1080    18.1150 hn         1 ZQQ       0.318500
     70 H35        -48.2310    10.5990    15.0860 hn         1 ZQQ       0.300500
     71 C06        -54.5650    24.5130    14.9830 c3         1 ZQQ       0.061900
     72 C15        -52.8950    20.7230    22.2340 c3         1 ZQQ       0.058900
     73 C24        -48.3810    13.7690    23.0050 c3         1 ZQQ       0.057900
@<TRIPOS>BOND
     1     1     4 1   
     2     1    23 2   
     3     1    24 1   
     4     2     3 2   
     5     2    23 1   
     6     2    36 1   
     7     3    24 1   
     8     3    37 1   
     9     4    25 1   
    10     4    32 2   
    11     5     6 2   
    12     5     8 1   
    13     5    25 1   
    14     6    26 1   
    15     6    41 1   
    16     7     8 2   
    17     7     9 1   
    18     7    26 1   
    19     8    42 1   
    20     9    27 1   
    21     9    33 2   
    22    10    11 2   
    23    10    13 1   
    24    10    27 1   
    25    11    28 1   
    26    11    46 1   
    27    12    13 2   
    28    12    14 1   
    29    12    28 1   
    30    13    47 1   
    31    14    29 1   
    32    14    34 2   
    33    15    16 1   
    34    15    29 1   
    35    15    51 1   
    36    15    52 1   
    37    16    17 1   
    38    16    53 1   
    39    16    54 1   
    40    17    30 1   
    41    17    35 2   
    42    18    19 1   
    43    18    30 1   
    44    18    55 1   
    45    18    56 1   
    46    19    20 1   
    47    19    57 1   
    48    19    58 1   
    49    20    31 1   
    50    20    59 1   
    51    20    60 1   
    52    21    31 1   
    53    21    61 1   
    54    21    62 1   
    55    21    63 1   
    56    22    31 1   
    57    22    64 1   
    58    22    65 1   
    59    22    66 1   
    60    24    71 1   
    61    25    67 1   
    62    26    72 1   
    63    27    68 1   
    64    28    73 1   
    65    29    69 1   
    66    30    70 1   
    67    38    71 1   
    68    39    71 1   
    69    40    71 1   
    70    43    72 1   
    71    44    72 1   
    72    45    72 1   
    73    48    73 1   
    74    49    73 1   
    75    50    73 1   
@<TRIPOS>SUBSTRUCTURE
     1 ZQQ         1 TEMP              0 ****  ****    0 ROOT
