@<TRIPOS>MOLECULE
ZQS
   36    39     1     0     0
SMALL
abcg2


@<TRIPOS>ATOM
      1 C6          20.1960    55.0740    86.8850 c5         1 ZQS       0.254800
      2 C5          21.5270    55.4950    87.5260 c5         1 ZQS       0.237500
      3 C2          22.1750    54.9400    89.7720 c2         1 ZQS       0.722100
      4 S1          22.4590    56.5790    90.3870 ss         1 ZQS      -0.396200
      5 N3          22.4650    54.0060    90.7160 nv         1 ZQS      -1.020200
      6 N4          21.7820    54.5860    88.6180 n2         1 ZQS      -0.714900
      7 N7          19.2180    55.7000    87.7500 nh         1 ZQS      -0.779300
      8 C8          19.7640    56.8220    88.4920 c5         1 ZQS       0.240800
      9 C9          21.1890    56.9320    87.9530 c5         1 ZQS      -0.113700
     10 C10         22.2070    57.5530    88.8800 c6         1 ZQS       0.079600
     11 C11         17.9440    55.2920    87.8580 ca         1 ZQS       0.392900
     12 N12         17.1680    55.9350    88.7430 nb         1 ZQS      -0.246500
     13 C13         15.9190    55.5120    88.8480 ca         1 ZQS       0.152400
     14 C14         15.4100    54.4630    88.0990 ca         1 ZQS      -0.295000
     15 C15         16.2980    53.8800    87.2090 ca         1 ZQS       0.152400
     16 N16         17.5500    54.2790    87.0730 nb         1 ZQS      -0.246500
     17 C17         22.6670    55.4200    86.5500 cc         1 ZQS      -0.226300
     18 C18         22.9140    56.1710    85.4380 cd         1 ZQS      -0.134000
     19 C19         24.0870    55.7660    84.7450 cd         1 ZQS      -0.136000
     20 C20         24.7070    54.7110    85.3420 cc         1 ZQS      -0.261000
     21 S21         23.8710    54.2060    86.7500 ss         1 ZQS       0.278000
     22 H1          20.1200    55.4450    85.8570 h1         1 ZQS       0.074200
     23 H2          20.0900    53.9910    86.8650 h1         1 ZQS       0.074200
     24 H3          22.1090    53.0790    90.5410 hn         1 ZQS       0.480500
     25 H4          22.4780    54.2740    91.6870 hn         1 ZQS       0.480500
     26 H5          19.1990    57.7390    88.3130 h1         1 ZQS       0.063700
     27 H6          19.7420    56.6330    89.5690 h1         1 ZQS       0.063700
     28 H7          21.1730    57.5510    87.0520 hc         1 ZQS       0.078700
     29 H8          23.1610    57.6660    88.3660 h1         1 ZQS       0.082700
     30 H9          21.8880    58.5400    89.2130 h1         1 ZQS       0.082700
     31 H10         15.2940    56.0350    89.5650 h4         1 ZQS       0.017600
     32 H11         14.3880    54.1280    88.1960 ha         1 ZQS       0.133000
     33 H12         15.9850    53.0580    86.5730 h4         1 ZQS       0.017600
     34 H13         22.2850    56.9890    85.1140 ha         1 ZQS       0.129000
     35 H14         24.4510    56.2430    83.8460 ha         1 ZQS       0.132000
     36 H15         25.6110    54.2090    85.0320 h4         1 ZQS       0.149000
@<TRIPOS>BOND
     1     1     2 1   
     2     1     7 1   
     3     1    22 1   
     4     1    23 1   
     5     2     6 1   
     6     2     9 1   
     7     2    17 1   
     8     3     4 1   
     9     3     5 1   
    10     3     6 2   
    11     4    10 1   
    12     5    24 1   
    13     5    25 1   
    14     7     8 1   
    15     7    11 1   
    16     8     9 1   
    17     8    26 1   
    18     8    27 1   
    19     9    10 1   
    20     9    28 1   
    21    10    29 1   
    22    10    30 1   
    23    11    12 ar  
    24    11    16 ar  
    25    12    13 ar  
    26    13    14 ar  
    27    13    31 1   
    28    14    15 ar  
    29    14    32 1   
    30    15    16 ar  
    31    15    33 1   
    32    17    18 2   
    33    17    21 1   
    34    18    19 1   
    35    18    34 1   
    36    19    20 2   
    37    19    35 1   
    38    20    21 1   
    39    20    36 1   
@<TRIPOS>SUBSTRUCTURE
     1 ZQS         1 TEMP              0 ****  ****    0 ROOT
