@<TRIPOS>MOLECULE
ZQS
   36    39     1     0     0
SMALL
No Charge or Current Charge


@<TRIPOS>ATOM
      1 C6          20.2230    54.8840    87.0070 c5         1 ZQS       0.254800
      2 C5          21.5900    55.3540    87.6390 c5         1 ZQS       0.237500
      3 C2          22.4910    54.9310    89.8040 c2         1 ZQS       0.722100
      4 S1          22.8060    56.6130    90.2810 ss         1 ZQS      -0.396200
      5 N3          22.8160    54.1450    90.8410 nv         1 ZQS      -1.020200
      6 N4          21.8820    54.4290    88.8010 n2         1 ZQS      -0.714900
      7 N7          19.1920    55.5930    87.8400 nh         1 ZQS      -0.779300
      8 C8          19.8160    56.6000    88.7420 c5         1 ZQS       0.240800
      9 C9          21.1900    56.8030    88.0440 c5         1 ZQS      -0.113700
     10 C10         22.2730    57.5560    88.8130 c6         1 ZQS       0.079600
     11 C11         17.8170    55.2720    87.8360 ca         1 ZQS       0.392900
     12 N12         17.0300    55.9280    88.7160 nb         1 ZQS      -0.246500
     13 C13         15.7200    55.6190    88.7080 ca         1 ZQS       0.152400
     14 C14         15.2010    54.6600    87.8250 ca         1 ZQS      -0.295000
     15 C15         16.0980    54.0320    86.9480 ca         1 ZQS       0.152400
     16 N16         17.4090    54.3370    86.9510 nb         1 ZQS      -0.246500
     17 C17         22.7300    55.3170    86.6280 cc         1 ZQS      -0.226300
     18 C18         22.7510    56.0080    85.4370 cd         1 ZQS      -0.134000
     19 C19         23.9350    55.8010    84.6810 cd         1 ZQS      -0.136000
     20 C20         24.8280    54.9520    85.2830 cc         1 ZQS      -0.261000
     21 S21         24.2110    54.3740    86.8270 ss         1 ZQS       0.278000
     22 H1          20.1460    55.1910    85.9550 h1         1 ZQS       0.074200
     23 H2          20.1240    53.7900    87.0450 h1         1 ZQS       0.074200
     24 H3          22.2840    53.2850    90.8260 hn         1 ZQS       0.480500
     25 H4          22.8100    54.6360    91.7240 hn         1 ZQS       0.480500
     26 H5          19.2490    57.5410    88.7830 h1         1 ZQS       0.063700
     27 H6          19.9180    56.2110    89.7650 h1         1 ZQS       0.063700
     28 H7          21.0300    57.4160    87.1500 hc         1 ZQS       0.078700
     29 H8          23.1530    57.6930    88.1670 h1         1 ZQS       0.082700
     30 H9          21.9230    58.5490    89.1300 h1         1 ZQS       0.082700
     31 H10         15.0820    56.1460    89.4170 h4         1 ZQS       0.017600
     32 H11         14.1420    54.4130    87.8210 ha         1 ZQS       0.133000
     33 H12         15.7650    53.2790    86.2350 h4         1 ZQS       0.017600
     34 H13         21.9450    56.6520    85.0980 ha         1 ZQS       0.129000
     35 H14         24.1160    56.2710    83.7180 ha         1 ZQS       0.132000
     36 H15         25.7990    54.6200    84.9380 h4         1 ZQS       0.149000
@<TRIPOS>BOND
     1     1     2 1   
     2     1     7 1   
     3     1    22 1   
     4     1    23 1   
     5     2     6 1   
     6     2     9 1   
     7     2    17 1   
     8     3     4 1   
     9     3     5 1   
    10     3     6 2   
    11     4    10 1   
    12     5    24 1   
    13     5    25 1   
    14     7     8 1   
    15     7    11 1   
    16     8     9 1   
    17     8    26 1   
    18     8    27 1   
    19     9    10 1   
    20     9    28 1   
    21    10    29 1   
    22    10    30 1   
    23    11    12 ar  
    24    11    16 ar  
    25    12    13 ar  
    26    13    14 ar  
    27    13    31 1   
    28    14    15 ar  
    29    14    32 1   
    30    15    16 ar  
    31    15    33 1   
    32    17    18 2   
    33    17    21 1   
    34    18    19 1   
    35    18    34 1   
    36    19    20 2   
    37    19    35 1   
    38    20    21 1   
    39    20    36 1   
@<TRIPOS>SUBSTRUCTURE
     1 ZQS         1 TEMP              0 ****  ****    0 ROOT
