@<TRIPOS>MOLECULE
ZQT
   28    30     1     0     0
SMALL
No Charge or Current Charge


@<TRIPOS>ATOM
      1 C1         -17.5580   -10.2650    -8.5350 ca         1 ZQT       0.217100
      2 C2         -18.3980    -9.7580    -7.5370 ca         1 ZQT      -0.272000
      3 C3         -19.7280    -9.4450    -7.8330 ca         1 ZQT       0.206100
      4 C4         -20.2200    -9.6400    -9.1250 ca         1 ZQT      -0.207000
      5 C4A        -19.3830   -10.1480   -10.1280 ca         1 ZQT       0.214100
      6 C5         -19.8410   -10.9430   -13.6760 ca         1 ZQT      -0.207000
      7 C5A        -19.1900   -10.8110   -12.4420 ca         1 ZQT       0.214100
      8 C6         -19.1490   -11.4370   -14.7840 ca         1 ZQT       0.206100
      9 C7         -17.8040   -11.7990   -14.6640 ca         1 ZQT      -0.272000
     10 C8         -17.1500   -11.6690   -13.4330 ca         1 ZQT       0.217100
     11 C8A        -17.8350   -11.1720   -12.3040 ca         1 ZQT      -0.275300
     12 C9         -17.1360   -11.0220   -10.9500 c6         1 ZQT       0.052200
     13 C9A        -18.0400   -10.4680    -9.8460 ca         1 ZQT      -0.275300
     14 O1         -16.2710   -10.5570    -8.2070 oh         1 ZQT      -0.534100
     15 O10        -19.9120   -10.3210   -11.3820 os         1 ZQT      -0.226200
     16 O3         -20.5470    -8.9520    -6.8660 oh         1 ZQT      -0.525100
     17 O6         -19.7870   -11.5620   -15.9780 oh         1 ZQT      -0.525100
     18 O8         -15.8420   -12.0330   -13.3580 oh         1 ZQT      -0.534100
     19 H2         -18.0060    -9.6100    -6.5350 ha         1 ZQT       0.133500
     20 H4         -21.2530    -9.3970    -9.3550 ha         1 ZQT       0.150000
     21 H5         -20.8850   -10.6620   -13.7690 ha         1 ZQT       0.150000
     22 H7         -17.2580   -12.1840   -15.5200 ha         1 ZQT       0.133500
     23 H92        -16.2680   -10.3580   -11.0680 hc         1 ZQT       0.039700
     24 H91        -16.7500   -12.0030   -10.6370 hc         1 ZQT       0.039700
     25 H1         -15.8230   -10.8980    -9.0060 ho         1 ZQT       0.469000
     26 HO3        -20.0300    -8.8860    -6.0350 ho         1 ZQT       0.471000
     27 HO6        -19.1480   -11.9210   -16.6290 ho         1 ZQT       0.471000
     28 H8         -15.5370   -11.8820   -12.4410 ho         1 ZQT       0.469000
@<TRIPOS>BOND
     1     1     2 ar  
     2     1    13 ar  
     3     1    14 1   
     4     2     3 ar  
     5     2    19 1   
     6     3     4 ar  
     7     3    16 1   
     8     4     5 ar  
     9     4    20 1   
    10     5    13 ar  
    11     5    15 1   
    12     6     7 ar  
    13     6     8 ar  
    14     6    21 1   
    15     7    11 ar  
    16     7    15 1   
    17     8     9 ar  
    18     8    17 1   
    19     9    10 ar  
    20     9    22 1   
    21    10    11 ar  
    22    10    18 1   
    23    11    12 1   
    24    12    13 1   
    25    12    23 1   
    26    12    24 1   
    27    14    25 1   
    28    16    26 1   
    29    17    27 1   
    30    18    28 1   
@<TRIPOS>SUBSTRUCTURE
     1 ZQT         1 TEMP              0 ****  ****    0 ROOT
