@<TRIPOS>MOLECULE
ZQT
   28    30     1     0     0
SMALL
abcg2


@<TRIPOS>ATOM
      1 C1         -17.5630   -10.2740    -8.5730 ca         1 ZQT       0.217100
      2 C2         -18.4000    -9.7680    -7.5860 ca         1 ZQT      -0.272000
      3 C3         -19.7200    -9.4630    -7.8970 ca         1 ZQT       0.206100
      4 C4         -20.2020    -9.6640    -9.1840 ca         1 ZQT      -0.207000
      5 C4A        -19.3400   -10.1700   -10.1450 ca         1 ZQT       0.214100
      6 C5         -19.8330   -10.9300   -13.6130 ca         1 ZQT      -0.207000
      7 C5A        -19.1510   -10.8160   -12.4100 ca         1 ZQT       0.214100
      8 C6         -19.1520   -11.4170   -14.7210 ca         1 ZQT       0.206100
      9 C7         -17.8140   -11.7800   -14.6190 ca         1 ZQT      -0.272000
     10 C8         -17.1600   -11.6530   -13.3990 ca         1 ZQT       0.217100
     11 C8A        -17.8160   -11.1670   -12.2630 ca         1 ZQT      -0.275300
     12 C9         -17.1060   -11.0330   -10.9450 c6         1 ZQT       0.052200
     13 C9A        -18.0140   -10.4880    -9.8800 ca         1 ZQT      -0.275300
     14 O1         -16.2990   -10.5470    -8.2000 oh         1 ZQT      -0.534100
     15 O10        -19.8870   -10.3350   -11.3760 os         1 ZQT      -0.226200
     16 O3         -20.5790    -8.9720    -6.9850 oh         1 ZQT      -0.525100
     17 O6         -19.8400   -11.5210   -15.8730 oh         1 ZQT      -0.525100
     18 O8         -15.8670   -12.0250   -13.3720 oh         1 ZQT      -0.534100
     19 H2         -18.0140    -9.6150    -6.5840 ha         1 ZQT       0.133500
     20 H4         -21.2280    -9.4300    -9.4370 ha         1 ZQT       0.150000
     21 H5         -20.8750   -10.6450   -13.6820 ha         1 ZQT       0.150000
     22 H7         -17.2730   -12.1630   -15.4770 ha         1 ZQT       0.133500
     23 H92        -16.2330   -10.3760   -11.0580 hc         1 ZQT       0.039700
     24 H91        -16.7160   -12.0120   -10.6340 hc         1 ZQT       0.039700
     25 H1         -15.7740   -10.8970    -8.9270 ho         1 ZQT       0.469000
     26 HO3        -20.1420    -8.8630    -6.1330 ho         1 ZQT       0.471000
     27 HO6        -19.2760   -11.8630   -16.5760 ho         1 ZQT       0.471000
     28 H8         -15.4770   -11.9130   -12.4980 ho         1 ZQT       0.469000
@<TRIPOS>BOND
     1     1     2 ar  
     2     1    13 ar  
     3     1    14 1   
     4     2     3 ar  
     5     2    19 1   
     6     3     4 ar  
     7     3    16 1   
     8     4     5 ar  
     9     4    20 1   
    10     5    13 ar  
    11     5    15 1   
    12     6     7 ar  
    13     6     8 ar  
    14     6    21 1   
    15     7    11 ar  
    16     7    15 1   
    17     8     9 ar  
    18     8    17 1   
    19     9    10 ar  
    20     9    22 1   
    21    10    11 ar  
    22    10    18 1   
    23    11    12 1   
    24    12    13 1   
    25    12    23 1   
    26    12    24 1   
    27    14    25 1   
    28    16    26 1   
    29    17    27 1   
    30    18    28 1   
@<TRIPOS>SUBSTRUCTURE
     1 ZQT         1 TEMP              0 ****  ****    0 ROOT
