@<TRIPOS>MOLECULE
ZQV
   61    65     1     0     0
SMALL
abcg2


@<TRIPOS>ATOM
      1 OAI         17.8330   -37.5270   -59.5010 o          1 ZQV      -0.711000
      2 CAH         17.4170   -36.6590   -58.7110 c          1 ZQV       0.714600
      3 OAJ         17.7560   -36.4920   -57.5260 o          1 ZQV      -0.711000
      4 CAC         16.3460   -35.7160   -59.2610 ca         1 ZQV      -0.115600
      5 CAB         15.4220   -36.2550   -60.1540 ca         1 ZQV      -0.068000
      6 CAD         16.2520   -34.3600   -58.9110 ca         1 ZQV      -0.035300
      7 CAG         17.2150   -33.6790   -57.9800 c3         1 ZQV      -0.029800
      8 CAE         15.2260   -33.5980   -59.4710 ca         1 ZQV      -0.136000
      9 CAF         14.2900   -34.1400   -60.3380 ca         1 ZQV      -0.127000
     10 CAA         14.4020   -35.4770   -60.6620 ca         1 ZQV       0.055100
     11 OAK         13.4410   -36.0510   -61.4890 os         1 ZQV      -0.327700
     12 CAL         13.7160   -36.1420   -62.7760 cc         1 ZQV       0.667100
     13 NAM         12.7680   -36.6660   -63.5930 na         1 ZQV      -0.333600
     14 NAP         14.8110   -35.7800   -63.3750 nd         1 ZQV      -0.676700
     15 CAO         14.5830   -36.0790   -64.6920 ca         1 ZQV       0.514000
     16 NAT         15.4200   -35.8800   -65.6890 nb         1 ZQV      -0.606000
     17 CAN         13.3010   -36.6370   -64.8550 ca         1 ZQV      -0.132200
     18 CAQ         12.8620   -37.0150   -66.1020 ca         1 ZQV      -0.070000
     19 CAR         13.7580   -36.7890   -67.1410 ca         1 ZQV       0.062000
     20 CLA         13.2890   -37.2900   -68.7310 cl         1 ZQV      -0.208000
     21 CAS         15.0190   -36.2170   -66.9140 cp         1 ZQV       0.400500
     22 CAV         15.9950   -35.9670   -67.9990 cp         1 ZQV      -0.127500
     23 CAW         15.6880   -35.1640   -69.0930 ca         1 ZQV      -0.076500
     24 CAX         16.6470   -34.8770   -70.0510 ca         1 ZQV      -0.110500
     25 CBA         17.2860   -36.4780   -67.8930 ca         1 ZQV      -0.076500
     26 CAZ         18.2380   -36.2070   -68.8620 ca         1 ZQV      -0.110500
     27 CAY         17.9380   -35.4030   -69.9640 ca         1 ZQV      -0.046800
     28 CBB         18.9530   -35.0920   -70.9920 ce         1 ZQV      -0.060400
     29 CBC         18.9420   -33.7040   -71.5830 c6         1 ZQV      -0.035200
     30 CBD         20.2600   -33.3590   -72.2630 c6         1 ZQV      -0.088400
     31 CBG         19.8470   -36.0050   -71.3840 c2         1 ZQV      -0.210200
     32 CBF         20.9060   -35.7740   -72.4160 c6         1 ZQV      -0.056200
     33 CBE         20.6680   -34.4890   -73.2050 c6         1 ZQV       0.126700
     34 NBH         21.7730   -34.1540   -74.0880 ns         1 ZQV      -0.512900
     35 CBI         23.0170   -33.8040   -73.7120 c          1 ZQV       0.599100
     36 OBJ         23.3750   -33.7250   -72.5450 o          1 ZQV      -0.597100
     37 CBK         23.9560   -33.5220   -74.8650 c3         1 ZQV      -0.184100
     38 H2          15.4990   -37.2950   -60.4420 ha         1 ZQV       0.140000
     39 H3          17.0520   -33.9790   -56.9460 hc         1 ZQV       0.039033
     40 H4          18.2510   -33.9130   -58.2160 hc         1 ZQV       0.039033
     41 H5          17.0930   -32.5970   -58.0380 hc         1 ZQV       0.039033
     42 H6          15.1560   -32.5460   -59.2230 ha         1 ZQV       0.092000
     43 H7          13.4930   -33.5320   -60.7490 ha         1 ZQV       0.100000
     44 H8          11.8560   -37.0000   -63.3180 hn         1 ZQV       0.366000
     45 H10         11.8930   -37.4630   -66.2740 ha         1 ZQV       0.129000
     46 H11         14.6990   -34.7340   -69.1910 ha         1 ZQV       0.124000
     47 H12         16.3770   -34.2360   -70.8820 ha         1 ZQV       0.110500
     48 H13         17.5530   -37.0890   -67.0400 ha         1 ZQV       0.124000
     49 H14         19.2380   -36.6030   -68.7420 ha         1 ZQV       0.110500
     50 H15         18.7320   -32.9730   -70.7980 hc         1 ZQV       0.049700
     51 H16         18.1190   -33.6110   -72.3010 hc         1 ZQV       0.049700
     52 H17         21.0330   -33.2030   -71.5090 hc         1 ZQV       0.058200
     53 H18         20.1570   -32.4270   -72.8220 hc         1 ZQV       0.058200
     54 H19         19.8180   -36.9980   -70.9460 ha         1 ZQV       0.178000
     55 H20         20.9410   -36.6270   -73.0990 hc         1 ZQV       0.059700
     56 H21         21.8830   -35.7450   -71.9240 hc         1 ZQV       0.059700
     57 H22         19.8240   -34.6670   -73.8770 h1         1 ZQV       0.040700
     58 H23         21.5810   -34.1930   -75.0750 hn         1 ZQV       0.305500
     59 H24         24.8980   -33.1270   -74.4960 hc         1 ZQV       0.056700
     60 H25         24.1590   -34.4370   -75.4240 hc         1 ZQV       0.056700
     61 H26         23.5210   -32.8060   -75.5630 hc         1 ZQV       0.056700
@<TRIPOS>BOND
     1     1     2 1   
     2     2     3 1   
     3     2     4 1   
     4     4     5 ar  
     5     4     6 ar  
     6     5    10 ar  
     7     5    38 1   
     8     6     7 1   
     9     6     8 ar  
    10     7    39 1   
    11     7    40 1   
    12     7    41 1   
    13     8     9 ar  
    14     8    42 1   
    15     9    10 ar  
    16     9    43 1   
    17    10    11 1   
    18    11    12 1   
    19    12    13 1   
    20    12    14 2   
    21    13    17 1   
    22    13    44 1   
    23    14    15 1   
    24    15    16 ar  
    25    15    17 ar  
    26    16    21 ar  
    27    17    18 ar  
    28    18    19 ar  
    29    18    45 1   
    30    19    20 1   
    31    19    21 ar  
    32    21    22 1   
    33    22    23 ar  
    34    22    25 ar  
    35    23    24 ar  
    36    23    46 1   
    37    24    27 ar  
    38    24    47 1   
    39    25    26 ar  
    40    25    48 1   
    41    26    27 ar  
    42    26    49 1   
    43    27    28 1   
    44    28    29 1   
    45    28    31 2   
    46    29    30 1   
    47    29    50 1   
    48    29    51 1   
    49    30    33 1   
    50    30    52 1   
    51    30    53 1   
    52    31    32 1   
    53    31    54 1   
    54    32    33 1   
    55    32    55 1   
    56    32    56 1   
    57    33    34 1   
    58    33    57 1   
    59    34    35 1   
    60    34    58 1   
    61    35    36 2   
    62    35    37 1   
    63    37    59 1   
    64    37    60 1   
    65    37    61 1   
@<TRIPOS>SUBSTRUCTURE
     1 ZQV         1 TEMP              0 ****  ****    0 ROOT
