@<TRIPOS>MOLECULE
ZQV
   61    65     1     0     0
SMALL
No Charge or Current Charge


@<TRIPOS>ATOM
      1 OAI         18.1010   -37.0850   -60.4150 o          1 ZQV      -0.711000
      2 CAH         17.5680   -36.6470   -59.4050 c          1 ZQV       0.714600
      3 OAJ         17.8980   -36.9770   -58.2740 o          1 ZQV      -0.711000
      4 CAC         16.3800   -35.7290   -59.5720 ca         1 ZQV      -0.115600
      5 CAB         15.3200   -36.1410   -60.4090 ca         1 ZQV      -0.068000
      6 CAD         16.2980   -34.4730   -58.9150 ca         1 ZQV      -0.035300
      7 CAG         17.4280   -33.9550   -58.0300 c3         1 ZQV      -0.029800
      8 CAE         15.1480   -33.6740   -59.0860 ca         1 ZQV      -0.136000
      9 CAF         14.0950   -34.1010   -59.9100 ca         1 ZQV      -0.127000
     10 CAA         14.1890   -35.3200   -60.5960 ca         1 ZQV       0.055100
     11 OAK         13.1150   -35.7390   -61.3590 os         1 ZQV      -0.327700
     12 CAL         13.4420   -35.9270   -62.6870 cc         1 ZQV       0.667100
     13 NAM         12.5780   -36.5350   -63.5710 na         1 ZQV      -0.333600
     14 NAP         14.5840   -35.5030   -63.2610 nd         1 ZQV      -0.676700
     15 CAO         14.4300   -35.8850   -64.5860 ca         1 ZQV       0.514000
     16 NAT         15.3020   -35.7010   -65.5860 nb         1 ZQV      -0.606000
     17 CAN         13.2160   -36.5080   -64.7740 ca         1 ZQV      -0.132200
     18 CAQ         12.8090   -37.0030   -66.0150 ca         1 ZQV      -0.070000
     19 CAR         13.7130   -36.8170   -67.0770 ca         1 ZQV       0.062000
     20 ClA         13.2760   -37.4830   -68.6560 cl         1 ZQV      -0.208000
     21 CAS         14.9570   -36.1410   -66.8260 cp         1 ZQV       0.400500
     22 CAV         15.9800   -35.8880   -67.8960 cp         1 ZQV      -0.127500
     23 CAW         15.6220   -35.3320   -69.1500 ca         1 ZQV      -0.076500
     24 CAX         16.5880   -35.0890   -70.1410 ca         1 ZQV      -0.110500
     25 CBA         17.3520   -36.1670   -67.6700 ca         1 ZQV      -0.076500
     26 CAZ         18.3170   -35.9260   -68.6620 ca         1 ZQV      -0.110500
     27 CAY         17.9450   -35.3890   -69.9100 ca         1 ZQV      -0.046800
     28 CBB         18.9760   -35.1310   -70.9600 ce         1 ZQV      -0.060400
     29 CBC         18.8410   -33.8320   -71.7750 c6         1 ZQV      -0.035200
     30 CBD         20.1580   -33.4200   -72.4740 c6         1 ZQV      -0.088400
     31 CBG         19.9900   -36.0030   -71.1900 c2         1 ZQV      -0.210200
     32 CBF         21.0980   -35.7820   -72.2160 c6         1 ZQV      -0.056200
     33 CBE         20.7710   -34.6360   -73.2040 c6         1 ZQV       0.126700
     34 NBH         21.9020   -34.2910   -74.0820 ns         1 ZQV      -0.512900
     35 CBI         23.0880   -33.6900   -73.7180 c          1 ZQV       0.599100
     36 OBJ         23.3560   -33.3720   -72.5690 o          1 ZQV      -0.597100
     37 CBK         24.0530   -33.4520   -74.8730 c3         1 ZQV      -0.184100
     38 H2          15.3730   -37.1060   -60.9070 ha         1 ZQV       0.140000
     39 H3          17.4330   -34.4650   -57.0600 hc         1 ZQV       0.039033
     40 H4          18.4060   -34.1070   -58.5010 hc         1 ZQV       0.039033
     41 H5          17.3290   -32.8800   -57.8350 hc         1 ZQV       0.039033
     42 H6          15.0680   -32.7170   -58.5760 ha         1 ZQV       0.092000
     43 H7          13.2100   -33.4800   -60.0250 ha         1 ZQV       0.100000
     44 H8          11.6650   -36.9060   -63.3450 hn         1 ZQV       0.366000
     45 H10         11.8580   -37.5110   -66.1530 ha         1 ZQV       0.129000
     46 H11         14.5850   -35.0740   -69.3530 ha         1 ZQV       0.124000
     47 H12         16.2720   -34.6710   -71.0930 ha         1 ZQV       0.110500
     48 H13         17.6690   -36.5820   -66.7150 ha         1 ZQV       0.124000
     49 H14         19.3610   -36.1480   -68.4520 ha         1 ZQV       0.110500
     50 H15         18.5000   -33.0130   -71.1260 hc         1 ZQV       0.049700
     51 H16         18.0620   -33.9680   -72.5370 hc         1 ZQV       0.049700
     52 H17         20.8620   -33.0320   -71.7260 hc         1 ZQV       0.058200
     53 H18         19.9640   -32.6050   -73.1840 hc         1 ZQV       0.058200
     54 H19         20.0640   -36.9270   -70.6150 ha         1 ZQV       0.178000
     55 H20         21.2820   -36.7100   -72.7740 hc         1 ZQV       0.059700
     56 H21         22.0270   -35.5570   -71.6770 hc         1 ZQV       0.059700
     57 H22         19.9880   -35.0180   -73.8760 h1         1 ZQV       0.040700
     58 H23         21.8070   -34.5060   -75.0670 hn         1 ZQV       0.305500
     59 H24         24.9860   -32.9760   -74.5530 hc         1 ZQV       0.056700
     60 H25         24.2390   -34.4040   -75.3840 hc         1 ZQV       0.056700
     61 H26         23.5450   -32.8670   -75.6480 hc         1 ZQV       0.056700
@<TRIPOS>BOND
     1     1     2 1   
     2     2     3 1   
     3     2     4 1   
     4     4     5 ar  
     5     4     6 ar  
     6     5    10 ar  
     7     5    38 1   
     8     6     7 1   
     9     6     8 ar  
    10     7    39 1   
    11     7    40 1   
    12     7    41 1   
    13     8     9 ar  
    14     8    42 1   
    15     9    10 ar  
    16     9    43 1   
    17    10    11 1   
    18    11    12 1   
    19    12    13 1   
    20    12    14 2   
    21    13    17 1   
    22    13    44 1   
    23    14    15 1   
    24    15    16 ar  
    25    15    17 ar  
    26    16    21 ar  
    27    17    18 ar  
    28    18    19 ar  
    29    18    45 1   
    30    19    20 1   
    31    19    21 ar  
    32    21    22 1   
    33    22    23 ar  
    34    22    25 ar  
    35    23    24 ar  
    36    23    46 1   
    37    24    27 ar  
    38    24    47 1   
    39    25    26 ar  
    40    25    48 1   
    41    26    27 ar  
    42    26    49 1   
    43    27    28 1   
    44    28    29 1   
    45    28    31 2   
    46    29    30 1   
    47    29    50 1   
    48    29    51 1   
    49    30    33 1   
    50    30    52 1   
    51    30    53 1   
    52    31    32 1   
    53    31    54 1   
    54    32    33 1   
    55    32    55 1   
    56    32    56 1   
    57    33    34 1   
    58    33    57 1   
    59    34    35 1   
    60    34    58 1   
    61    35    36 2   
    62    35    37 1   
    63    37    59 1   
    64    37    60 1   
    65    37    61 1   
@<TRIPOS>SUBSTRUCTURE
     1 ZQV         1 TEMP              0 ****  ****    0 ROOT
