@<TRIPOS>MOLECULE
ZQW
   58    61     1     0     0
SMALL
No Charge or Current Charge


@<TRIPOS>ATOM
      1 C02        -59.3110    49.0600    -3.3530 ca         1 ZQW      -0.106000
      2 C04        -60.7860    50.7950    -4.2160 ca         1 ZQW      -0.106000
      3 C05        -61.6350    50.6230    -3.1090 ca         1 ZQW      -0.116500
      4 C06        -61.3210    49.6790    -2.1160 ca         1 ZQW       0.105100
      5 C07        -61.0400    48.2770     2.7790 ca         1 ZQW      -0.126000
      6 C09        -60.5770    49.5570     0.7670 ca         1 ZQW      -0.171000
      7 C10        -61.7920    49.1140     0.2060 ca         1 ZQW       0.102100
      8 C12        -62.2650    47.8530     2.2360 ca         1 ZQW      -0.084000
      9 C13        -66.1270    49.2940    -5.4840 ca         1 ZQW      -0.111000
     10 C14        -66.0930    48.6090    -4.2620 ca         1 ZQW      -0.082000
     11 C15        -64.9340    47.9050    -3.8430 ca         1 ZQW      -0.127600
     12 C16        -63.7860    47.9110    -4.6980 ca         1 ZQW      -0.001000
     13 C19        -62.5640    47.2750    -4.3570 ca         1 ZQW      -0.078000
     14 C20        -61.4690    47.2890    -5.2360 ca         1 ZQW      -0.120000
     15 C21        -61.5540    47.9570    -6.4640 ca         1 ZQW      -0.111000
     16 C22        -62.7390    48.6190    -6.8100 ca         1 ZQW      -0.110000
     17 C27        -64.9860    47.1760     0.7730 c          1 ZQW       0.605100
     18 C28        -66.7820    45.6640    -0.3560 c3         1 ZQW      -0.064400
     19 C30        -68.6160    44.1520    -1.2350 c          1 ZQW       0.721000
     20 C01        -60.1650    48.8810    -2.2500 ca         1 ZQW      -0.116500
     21 C03        -59.6200    50.0190    -4.3340 ca         1 ZQW      -0.122000
     22 C08        -60.1990    49.1320     2.0500 ca         1 ZQW      -0.103000
     23 C11        -62.6550    48.2760     0.9440 ca         1 ZQW      -0.036000
     24 C17        -63.8460    48.6020    -5.9390 ca         1 ZQW      -0.046000
     25 C18        -65.0090    49.2880    -6.3220 ca         1 ZQW      -0.095000
     26 C26        -66.1730    47.0930    -0.2460 c3         1 ZQW       0.041700
     27 N25        -65.8430    47.6950    -1.5690 ns         1 ZQW      -0.509900
     28 N33        -63.8910    47.9140     0.3390 ns         1 ZQW      -0.163000
     29 O24        -64.3870    46.1180    -2.3020 o          1 ZQW      -0.573100
     30 O31        -69.4680    43.9390    -0.3860 o          1 ZQW      -0.734000
     31 O32        -68.1820    43.2950    -1.9890 o          1 ZQW      -0.734000
     32 O34        -65.0340    46.6190     1.8650 o          1 ZQW      -0.567100
     33 O35        -62.1830    49.5340    -1.0500 os         1 ZQW      -0.254200
     34 H1         -58.4160    48.4490    -3.4520 ha         1 ZQW       0.113500
     35 H2         -61.0310    51.5270    -4.9820 ha         1 ZQW       0.113500
     36 H3         -62.5380    51.2220    -3.0180 ha         1 ZQW       0.134500
     37 H4         -60.7470    47.9490     3.7740 ha         1 ZQW       0.112000
     38 H5         -59.9290    50.2310     0.2130 ha         1 ZQW       0.119000
     39 H6         -62.8940    47.2010     2.8340 ha         1 ZQW       0.134000
     40 H9         -62.4230    46.7750    -3.4070 ha         1 ZQW       0.143000
     41 H10        -60.5440    46.7910    -4.9550 ha         1 ZQW       0.113000
     42 H11        -60.7010    47.9730    -7.1380 ha         1 ZQW       0.103000
     43 H12        -62.7950    49.1480    -7.7590 ha         1 ZQW       0.104000
     44 H13        -67.0960    45.3440     0.6460 hc         1 ZQW       0.076200
     45 H14        -66.0120    44.9490    -0.6730 hc         1 ZQW       0.076200
     46 H15        -59.9280    48.1240    -1.5070 ha         1 ZQW       0.134500
     47 H16        -58.9630    50.1510    -5.1900 ha         1 ZQW       0.110000
     48 H17        -59.2580    49.4680     2.4810 ha         1 ZQW       0.105000
     49 H18        -65.0490    49.8180    -7.2710 ha         1 ZQW       0.106000
     50 H19        -66.9510    47.7360     0.1840 h1         1 ZQW       0.052700
     51 H22        -66.3040    48.5600    -1.8250 hn         1 ZQW       0.313500
     52 H23        -64.0060    48.2970    -0.5900 hn         1 ZQW       0.165000
     53 C23        -64.9940    47.1550    -2.5220 c          1 ZQW       0.609700
     54 H7         -67.0300    49.8200    -5.7870 ha         1 ZQW       0.117000
     55 C29        -68.0050    45.5630    -1.3090 c3         1 ZQW      -0.211400
     56 H8         -66.9980    48.6060    -3.6590 ha         1 ZQW       0.136000
     57 H20        -67.6270    45.7610    -2.3190 hc         1 ZQW       0.008700
     58 H21        -68.7240    46.3110    -0.9530 hc         1 ZQW       0.008700
@<TRIPOS>BOND
     1     1    20 ar  
     2     1    21 ar  
     3     1    34 1   
     4     2     3 ar  
     5     2    21 ar  
     6     2    35 1   
     7     3     4 ar  
     8     3    36 1   
     9     4    20 ar  
    10     4    33 1   
    11     5     8 ar  
    12     5    22 ar  
    13     5    37 1   
    14     6     7 ar  
    15     6    22 ar  
    16     6    38 1   
    17     7    23 ar  
    18     7    33 1   
    19     8    23 ar  
    20     8    39 1   
    21     9    10 ar  
    22     9    25 ar  
    23     9    54 1   
    24    10    11 ar  
    25    10    56 1   
    26    11    12 ar  
    27    11    53 1   
    28    12    13 ar  
    29    12    24 ar  
    30    13    14 ar  
    31    13    40 1   
    32    14    15 ar  
    33    14    41 1   
    34    15    16 ar  
    35    15    42 1   
    36    16    24 ar  
    37    16    43 1   
    38    17    26 1   
    39    17    28 1   
    40    17    32 2   
    41    18    26 1   
    42    18    44 1   
    43    18    45 1   
    44    18    55 1   
    45    19    30 1   
    46    19    31 1   
    47    19    55 1   
    48    20    46 1   
    49    21    47 1   
    50    22    48 1   
    51    23    28 1   
    52    24    25 ar  
    53    25    49 1   
    54    26    27 1   
    55    26    50 1   
    56    27    51 1   
    57    27    53 1   
    58    28    52 1   
    59    29    53 2   
    60    55    57 1   
    61    55    58 1   
@<TRIPOS>SUBSTRUCTURE
     1 ZQW         1 TEMP              0 ****  ****    0 ROOT
