@<TRIPOS>MOLECULE
ZQW
   58    61     1     0     0
SMALL
abcg2


@<TRIPOS>ATOM
      1 C02        -58.7710    48.2870    -3.1770 ca         1 ZQW      -0.106000
      2 C04        -59.2800    50.6210    -3.4400 ca         1 ZQW      -0.106000
      3 C05        -60.3660    50.4870    -2.5840 ca         1 ZQW      -0.116500
      4 C06        -60.6430    49.2450    -2.0350 ca         1 ZQW       0.105100
      5 C07        -61.4100    48.7370     2.8710 ca         1 ZQW      -0.126000
      6 C09        -60.3980    49.3060     0.7620 ca         1 ZQW      -0.171000
      7 C10        -61.5800    48.9830     0.1090 ca         1 ZQW       0.102100
      8 C12        -62.5940    48.4340     2.2170 ca         1 ZQW      -0.084000
      9 C13        -66.9630    48.2770    -5.7800 ca         1 ZQW      -0.111000
     10 C14        -66.6460    47.8000    -4.4960 ca         1 ZQW      -0.082000
     11 C15        -65.3460    47.7340    -4.0570 ca         1 ZQW      -0.127600
     12 C16        -64.2860    48.1640    -4.9090 ca         1 ZQW      -0.001000
     13 C19        -62.9220    48.1560    -4.5280 ca         1 ZQW      -0.078000
     14 C20        -61.9510    48.6140    -5.3770 ca         1 ZQW      -0.120000
     15 C21        -62.2830    49.1030    -6.6550 ca         1 ZQW      -0.111000
     16 C22        -63.5900    49.1260    -7.0550 ca         1 ZQW      -0.110000
     17 C27        -64.5820    47.0830     0.3380 c          1 ZQW       0.605100
     18 C28        -66.5420    45.6310    -0.3920 c3         1 ZQW      -0.064400
     19 C30        -68.6720    44.2570    -0.9070 c          1 ZQW       0.721000
     20 C01        -59.8540    48.1400    -2.3230 ca         1 ZQW      -0.116500
     21 C03        -58.4800    49.5260    -3.7360 ca         1 ZQW      -0.122000
     22 C08        -60.3140    49.1720     2.1410 ca         1 ZQW      -0.103000
     23 C11        -62.6910    48.5400     0.8340 ca         1 ZQW      -0.036000
     24 C17        -64.6170    48.6650    -6.1990 ca         1 ZQW      -0.046000
     25 C18        -65.9680    48.7030    -6.6130 ca         1 ZQW      -0.095000
     26 C26        -65.9250    47.0280    -0.3990 c3         1 ZQW       0.041700
     27 N25        -65.8520    47.6380    -1.7130 ns         1 ZQW      -0.509900
     28 N33        -63.8830    48.2310     0.1560 ns         1 ZQW      -0.163000
     29 O24        -64.2270    46.2950    -2.5090 o          1 ZQW      -0.573100
     30 O31        -69.8230    44.2390    -1.3890 o          1 ZQW      -0.734000
     31 O32        -68.0790    43.3090    -0.3560 o          1 ZQW      -0.734000
     32 O34        -64.2270    46.2010     1.0940 o          1 ZQW      -0.567100
     33 O35        -61.7500    49.1000    -1.2350 os         1 ZQW      -0.254200
     34 H1         -58.1540    47.4280    -3.4090 ha         1 ZQW       0.113500
     35 H2         -59.0620    51.5870    -3.8750 ha         1 ZQW       0.113500
     36 H3         -60.9960    51.3350    -2.3500 ha         1 ZQW       0.134500
     37 H4         -61.3500    48.6420     3.9460 ha         1 ZQW       0.112000
     38 H5         -59.5390    49.6570     0.2060 ha         1 ZQW       0.119000
     39 H6         -63.4560    48.1170     2.7860 ha         1 ZQW       0.134000
     40 H9         -62.6370    47.7840    -3.5560 ha         1 ZQW       0.143000
     41 H10        -60.9160    48.6010    -5.0600 ha         1 ZQW       0.113000
     42 H11        -61.5030    49.4610    -7.3140 ha         1 ZQW       0.103000
     43 H12        -63.8600    49.5050    -8.0330 ha         1 ZQW       0.104000
     44 H13        -66.6120    45.3060     0.6460 hc         1 ZQW       0.076200
     45 H14        -65.8800    44.9220    -0.8910 hc         1 ZQW       0.076200
     46 H15        -60.0900    47.1760    -1.8900 ha         1 ZQW       0.134500
     47 H16        -57.6360    49.6350    -4.4040 ha         1 ZQW       0.110000
     48 H17        -59.3870    49.4190     2.6410 ha         1 ZQW       0.105000
     49 H18        -66.2020    49.0780    -7.6020 ha         1 ZQW       0.106000
     50 H19        -66.5870    47.6850     0.1770 h1         1 ZQW       0.052700
     51 H22        -66.5330    48.3460    -1.9350 hn         1 ZQW       0.313500
     52 H23        -64.2050    48.8700    -0.5560 hn         1 ZQW       0.165000
     53 C23        -65.0770    47.1510    -2.7040 c          1 ZQW       0.609700
     54 H7         -67.9960    48.3030    -6.0990 ha         1 ZQW       0.117000
     55 C29        -67.9250    45.6030    -1.0210 c3         1 ZQW      -0.211400
     56 H8         -67.4520    47.4550    -3.8590 ha         1 ZQW       0.136000
     57 H20        -67.8680    45.8620    -2.0830 hc         1 ZQW       0.008700
     58 H21        -68.5540    46.3820    -0.5730 hc         1 ZQW       0.008700
@<TRIPOS>BOND
     1     1    20 ar  
     2     1    21 ar  
     3     1    34 1   
     4     2     3 ar  
     5     2    21 ar  
     6     2    35 1   
     7     3     4 ar  
     8     3    36 1   
     9     4    20 ar  
    10     4    33 1   
    11     5     8 ar  
    12     5    22 ar  
    13     5    37 1   
    14     6     7 ar  
    15     6    22 ar  
    16     6    38 1   
    17     7    23 ar  
    18     7    33 1   
    19     8    23 ar  
    20     8    39 1   
    21     9    10 ar  
    22     9    25 ar  
    23     9    54 1   
    24    10    11 ar  
    25    10    56 1   
    26    11    12 ar  
    27    11    53 1   
    28    12    13 ar  
    29    12    24 ar  
    30    13    14 ar  
    31    13    40 1   
    32    14    15 ar  
    33    14    41 1   
    34    15    16 ar  
    35    15    42 1   
    36    16    24 ar  
    37    16    43 1   
    38    17    26 1   
    39    17    28 1   
    40    17    32 2   
    41    18    26 1   
    42    18    44 1   
    43    18    45 1   
    44    18    55 1   
    45    19    30 1   
    46    19    31 1   
    47    19    55 1   
    48    20    46 1   
    49    21    47 1   
    50    22    48 1   
    51    23    28 1   
    52    24    25 ar  
    53    25    49 1   
    54    26    27 1   
    55    26    50 1   
    56    27    51 1   
    57    27    53 1   
    58    28    52 1   
    59    29    53 2   
    60    55    57 1   
    61    55    58 1   
@<TRIPOS>SUBSTRUCTURE
     1 ZQW         1 TEMP              0 ****  ****    0 ROOT
