@<TRIPOS>MOLECULE
ZQY
   53    56     1     0     0
SMALL
bcc


@<TRIPOS>ATOM
      1 N1         195.6530   187.0150   171.7390 nu         1 ZQY      -0.867900
      2 N3         197.5150   185.7330   171.3680 nb         1 ZQY      -0.884000
      3 C4         197.2180   185.6910   175.8920 ca         1 ZQY      -0.091000
      4 C5         197.0960   185.0460   177.1090 ca         1 ZQY      -0.173000
      5 C6         196.0060   185.3130   177.9330 ca         1 ZQY       0.109100
      6 C7         196.3740   187.2660   174.1110 c3         1 ZQY      -0.051100
      7 C8         195.5010   186.5280   173.0910 c3         1 ZQY       0.233800
      8 C10        196.7370   187.1010   169.5860 ca         1 ZQY      -0.409400
      9 C13        199.2300   183.9740   172.3500 c3         1 ZQY       0.143700
     10 C15        195.9620   188.0360   168.8270 cc         1 ZQY      -0.091200
     11 C17        196.9000   190.1200   165.9990 c3         1 ZQY      -0.076400
     12 C20        193.6900   183.9280   179.2150 cc         1 ZQY       0.346800
     13 C1         195.0460   186.2310   177.5240 ca         1 ZQY      -0.173000
     14 O1         199.3460   184.4250   171.0090 os         1 ZQY      -0.410100
     15 S1         197.8130   187.1950   167.2460 ss         1 ZQY      -0.120900
     16 C2         195.1890   186.8710   176.2990 ca         1 ZQY      -0.091000
     17 N2         198.6710   185.6660   169.2970 nb         1 ZQY      -0.728000
     18 O2         195.9780   184.6410   179.1160 os         1 ZQY      -0.323900
     19 C3         196.2690   186.6180   175.4620 ca         1 ZQY      -0.102300
     20 N4         193.8160   182.7850   178.5400 na         1 ZQY      -0.149400
     21 N5         192.6260   182.4050   178.1140 nc         1 ZQY      -0.196800
     22 N6         191.7990   183.2840   178.5220 nd         1 ZQY      -0.042000
     23 N7         192.4210   184.2480   179.2040 nd         1 ZQY      -0.382000
     24 C9         196.6300   186.6200   170.9150 ca         1 ZQY       0.792200
     25 C11        197.7880   186.5570   168.8560 ca         1 ZQY       0.530600
     26 C12        198.4670   185.3120   170.5510 ca         1 ZQY       0.927300
     27 C14        196.4110   188.1940   167.5610 cd         1 ZQY      -0.072600
     28 C16        195.8830   189.0880   166.4900 c3         1 ZQY      -0.011200
     29 C18        196.3180   191.0370   164.9340 c3         1 ZQY      -0.090100
     30 C19        194.8030   184.6640   179.8830 c3         1 ZQY       0.110100
     31 H1         195.0110   187.7200   171.4190 hn         1 ZQY       0.445800
     32 H2         198.0700   185.4680   175.2600 ha         1 ZQY       0.136000
     33 H3         197.8440   184.3290   177.4260 ha         1 ZQY       0.146500
     34 H4         197.4120   187.2520   173.7720 hc         1 ZQY       0.058700
     35 H5         196.0650   188.3120   174.1610 hc         1 ZQY       0.058700
     36 H6         194.4500   186.6350   173.3600 h1         1 ZQY       0.060200
     37 H7         195.7320   185.4630   173.1130 h1         1 ZQY       0.060200
     38 H8         200.0290   183.2510   172.4880 h1         1 ZQY       0.044700
     39 H9         199.3560   184.7880   173.0660 h1         1 ZQY       0.044700
     40 H10        198.2710   183.4900   172.5360 h1         1 ZQY       0.044700
     41 H11        195.1030   188.5760   169.2040 ha         1 ZQY       0.143000
     42 H12        197.7790   189.6080   165.5980 hc         1 ZQY       0.045200
     43 H13        197.2500   190.7100   166.8510 hc         1 ZQY       0.045200
     44 H14        194.1860   186.4730   178.1350 ha         1 ZQY       0.146500
     45 H15        194.4320   187.5870   175.9980 ha         1 ZQY       0.136000
     46 H16        194.6420   182.2360   178.3380 hn         1 ZQY       0.345700
     47 H17        195.0010   189.6000   166.8830 hc         1 ZQY       0.051700
     48 H18        195.5400   188.4910   165.6380 hc         1 ZQY       0.051700
     49 H19        197.0560   191.7640   164.5930 hc         1 ZQY       0.033700
     50 H20        195.9860   190.4690   164.0630 hc         1 ZQY       0.033700
     51 H21        195.4590   191.5900   165.3150 hc         1 ZQY       0.033700
     52 H22        195.0510   184.1690   180.8230 h1         1 ZQY       0.088700
     53 H23        194.4650   185.6740   180.1300 h1         1 ZQY       0.088700
@<TRIPOS>BOND
     1     1     7 1   
     2     1    24 1   
     3     1    31 1   
     4     2    24 ar  
     5     2    26 ar  
     6     3     4 ar  
     7     3    19 ar  
     8     3    32 1   
     9     4     5 ar  
    10     4    33 1   
    11     5    13 ar  
    12     5    18 1   
    13     6     7 1   
    14     6    19 1   
    15     6    34 1   
    16     6    35 1   
    17     7    36 1   
    18     7    37 1   
    19     8    10 1   
    20     8    24 ar  
    21     8    25 ar  
    22     9    14 1   
    23     9    38 1   
    24     9    39 1   
    25     9    40 1   
    26    10    27 2   
    27    10    41 1   
    28    11    28 1   
    29    11    29 1   
    30    11    42 1   
    31    11    43 1   
    32    12    20 1   
    33    12    23 2   
    34    12    30 1   
    35    13    16 ar  
    36    13    44 1   
    37    14    26 1   
    38    15    25 1   
    39    15    27 1   
    40    16    19 ar  
    41    16    45 1   
    42    17    25 ar  
    43    17    26 ar  
    44    18    30 1   
    45    20    21 1   
    46    20    46 1   
    47    21    22 2   
    48    22    23 1   
    49    27    28 1   
    50    28    47 1   
    51    28    48 1   
    52    29    49 1   
    53    29    50 1   
    54    29    51 1   
    55    30    52 1   
    56    30    53 1   
@<TRIPOS>SUBSTRUCTURE
     1 ZQY         1 TEMP              0 ****  ****    0 ROOT
