@<TRIPOS>MOLECULE
ZQY
   53    56     1     0     0
SMALL
No Charge or Current Charge


@<TRIPOS>ATOM
      1 N1         195.7800   186.2410   171.3640 nu         1 ZQY      -0.923100
      2 N3         197.9150   185.3490   171.0450 nb         1 ZQY      -0.358000
      3 C4         197.0400   185.1850   175.6940 ca         1 ZQY      -0.073000
      4 C5         196.8870   184.7430   177.0200 ca         1 ZQY      -0.155000
      5 C6         195.9070   185.3090   177.8500 ca         1 ZQY       0.109100
      6 C7         196.3750   186.6760   173.7490 c3         1 ZQY      -0.051100
      7 C8         195.5950   185.7870   172.7570 c3         1 ZQY       0.233800
      8 C10        197.0450   186.7990   169.3650 ca         1 ZQY      -0.278800
      9 C13        200.0040   183.7720   172.0000 c3         1 ZQY       0.166900
     10 C15        196.1000   187.6780   168.7020 cc         1 ZQY      -0.141200
     11 C17        196.4220   190.5320   166.6660 c3         1 ZQY      -0.076400
     12 C20        193.4160   184.6900   179.5790 cc         1 ZQY       0.346800
     13 C1         195.0770   186.3340   177.3450 ca         1 ZQY      -0.155000
     14 O1         200.0690   184.4540   170.7310 os         1 ZQY      -0.433300
     15 S1         198.2470   187.5290   167.1320 ss         1 ZQY      -0.120900
     16 C2         195.2310   186.7750   176.0190 ca         1 ZQY      -0.073000
     17 N2         199.2230   185.8590   169.0950 nb         1 ZQY      -0.202000
     18 O2         195.8060   184.8280   179.1410 os         1 ZQY      -0.347100
     19 C3         196.2120   186.2040   175.1870 ca         1 ZQY      -0.102300
     20 N4         193.2050   183.5190   178.9110 na         1 ZQY      -0.199700
     21 N5         191.8850   183.3560   178.6450 nc         1 ZQY      -0.196800
     22 N6         191.3170   184.4170   179.1530 nd         1 ZQY      -0.042000
     23 N7         192.2370   185.2570   179.7370 nd         1 ZQY      -0.382000
     24 C9         196.9230   186.1290   170.5860 ca         1 ZQY       0.463900
     25 C11        198.2140   186.6290   168.6590 ca         1 ZQY       0.202300
     26 C12        199.0310   185.2430   170.2830 ca         1 ZQY       0.401300
     27 C14        196.6080   188.1470   167.5010 cd         1 ZQY      -0.072600
     28 C16        195.9210   189.0780   166.5370 c3         1 ZQY      -0.011200
     29 C18        195.7250   191.5030   165.6930 c3         1 ZQY      -0.090100
     30 C19        194.7510   185.2230   180.0520 c3         1 ZQY       0.133300
     31 H1         195.0480   186.8270   170.9660 hn         1 ZQY       0.501000
     32 H2         197.8030   184.7340   175.0620 ha         1 ZQY       0.118000
     33 H3         197.5300   183.9560   177.4050 ha         1 ZQY       0.128500
     34 H4         197.4380   186.6790   173.4790 hc         1 ZQY       0.058700
     35 H5         196.0310   187.7130   173.6470 hc         1 ZQY       0.058700
     36 H6         194.5290   185.8270   173.0210 h1         1 ZQY       0.060200
     37 H7         195.9190   184.7420   172.8640 h1         1 ZQY       0.060200
     38 H8         200.9260   183.2030   172.1760 h1         1 ZQY       0.044700
     39 H9         199.8840   184.4880   172.8240 h1         1 ZQY       0.044700
     40 H10        199.1610   183.0680   172.0240 h1         1 ZQY       0.044700
     41 H11        195.1170   187.9560   169.0750 ha         1 ZQY       0.193000
     42 H12        197.5040   190.5600   166.4850 hc         1 ZQY       0.045200
     43 H13        196.2620   190.8790   167.6950 hc         1 ZQY       0.045200
     44 H14        194.3140   186.8010   177.9600 ha         1 ZQY       0.128500
     45 H15        194.5840   187.5630   175.6380 ha         1 ZQY       0.118000
     46 H16        193.9080   182.8460   178.6280 hn         1 ZQY       0.396000
     47 H17        194.8370   189.0550   166.7040 hc         1 ZQY       0.051700
     48 H18        196.0830   188.7310   165.5090 hc         1 ZQY       0.051700
     49 H19        196.1150   192.5200   165.8240 hc         1 ZQY       0.033700
     50 H20        195.8970   191.2010   164.6530 hc         1 ZQY       0.033700
     51 H21        194.6440   191.5250   165.8740 hc         1 ZQY       0.033700
     52 H22        194.9440   184.8120   181.0500 h1         1 ZQY       0.088700
     53 H23        194.7020   186.3140   180.1530 h1         1 ZQY       0.088700
@<TRIPOS>BOND
     1     1     7 1   
     2     1    24 1   
     3     1    31 1   
     4     2    24 ar  
     5     2    26 ar  
     6     3     4 ar  
     7     3    19 ar  
     8     3    32 1   
     9     4     5 ar  
    10     4    33 1   
    11     5    13 ar  
    12     5    18 1   
    13     6     7 1   
    14     6    19 1   
    15     6    34 1   
    16     6    35 1   
    17     7    36 1   
    18     7    37 1   
    19     8    10 1   
    20     8    24 ar  
    21     8    25 ar  
    22     9    14 1   
    23     9    38 1   
    24     9    39 1   
    25     9    40 1   
    26    10    27 2   
    27    10    41 1   
    28    11    28 1   
    29    11    29 1   
    30    11    42 1   
    31    11    43 1   
    32    12    20 1   
    33    12    23 2   
    34    12    30 1   
    35    13    16 ar  
    36    13    44 1   
    37    14    26 1   
    38    15    25 1   
    39    15    27 1   
    40    16    19 ar  
    41    16    45 1   
    42    17    25 ar  
    43    17    26 ar  
    44    18    30 1   
    45    20    21 1   
    46    20    46 1   
    47    21    22 2   
    48    22    23 1   
    49    27    28 1   
    50    28    47 1   
    51    28    48 1   
    52    29    49 1   
    53    29    50 1   
    54    29    51 1   
    55    30    52 1   
    56    30    53 1   
@<TRIPOS>SUBSTRUCTURE
     1 ZQY         1 TEMP              0 ****  ****    0 ROOT
