@<TRIPOS>MOLECULE
ZQZ
   62    65     1     0     0
SMALL
No Charge or Current Charge


@<TRIPOS>ATOM
      1 C10         36.9890    -7.6590    38.1680 ca         1 ZQZ       0.098100
      2 C11         36.2090    -8.6320    38.8280 ca         1 ZQZ      -0.040000
      3 C15         33.5950    -7.8590    34.4390 ca         1 ZQZ      -0.125600
      4 C14         32.8630    -6.8240    33.8130 ca         1 ZQZ      -0.066000
      5 C13         33.1350    -6.4340    32.4960 ca         1 ZQZ      -0.121000
      6 C12         36.6330    -9.1230    40.0820 ca         1 ZQZ      -0.092000
      7 C01         36.9970    -6.2040    34.8170 ca         1 ZQZ      -0.166000
      8 C02         37.7450    -6.1510    33.6300 ca         1 ZQZ      -0.048000
      9 C03         38.8390    -7.0140    33.4590 ca         1 ZQZ      -0.183000
     10 C04         39.1840    -7.9350    34.4610 ca         1 ZQZ       0.165100
     11 C05         38.4320    -7.9860    35.6530 ca         1 ZQZ      -0.284000
     12 C06         37.3420    -7.1110    35.8300 ca         1 ZQZ       0.185100
     13 C07         37.8160    -8.6360    40.6670 ca         1 ZQZ      -0.110000
     14 C08         38.5810    -7.6580    40.0100 ca         1 ZQZ      -0.112000
     15 C09         38.1660    -7.1660    38.7610 ca         1 ZQZ      -0.123000
     16 C16         34.6710    -8.4750    33.7200 ca         1 ZQZ      -0.003000
     17 C17         34.9220    -8.0750    32.3790 ca         1 ZQZ      -0.046000
     18 C18         34.1510    -7.0680    31.7750 ca         1 ZQZ      -0.092000
     19 C19         35.5450    -9.4350    34.2940 ca         1 ZQZ      -0.097000
     20 C20         36.5810   -10.0150    33.5430 ca         1 ZQZ      -0.096000
     21 C21         36.7840    -9.6390    32.2100 ca         1 ZQZ      -0.105000
     22 C22         35.9610    -8.6640    31.6330 ca         1 ZQZ      -0.104000
     23 C23         33.1550    -8.2320    35.8390 c          1 ZQZ       0.597700
     24 C26         32.8510   -10.1100    37.5250 c3         1 ZQZ       0.018700
     25 C27         33.8980    -9.7410    38.6350 c          1 ZQZ       0.625100
     26 C28         32.6090   -11.6390    37.3860 c3         1 ZQZ      -0.062400
     27 C29         31.8980   -12.3100    38.5910 c3         1 ZQZ      -0.217400
     28 C30         31.5330   -13.7650    38.2510 c          1 ZQZ       0.720000
     29 C37         40.6700    -9.7710    35.1720 c3         1 ZQZ       0.148900
     30 N25         33.2220    -9.5630    36.1930 ns         1 ZQZ      -0.505900
     31 N33         35.0400    -9.1010    38.1740 ns         1 ZQZ      -0.177000
     32 O24         32.7590    -7.3950    36.6370 o          1 ZQZ      -0.585100
     33 O31         32.3620   -14.6330    38.4750 o          1 ZQZ      -0.736500
     34 O32         30.4530   -13.9790    37.7240 o          1 ZQZ      -0.736500
     35 O34         33.6980    -9.9600    39.8260 o          1 ZQZ      -0.573100
     36 O35         36.5570    -7.1570    36.9600 os         1 ZQZ      -0.232200
     37 H1          32.0520    -6.3320    34.3470 ha         1 ZQZ       0.131000
     38 H2          32.5480    -5.6450    32.0300 ha         1 ZQZ       0.111000
     39 H3          36.0680    -9.8910    40.6030 ha         1 ZQZ       0.142000
     40 H4          36.1420    -5.5470    34.9500 ha         1 ZQZ       0.141000
     41 H5          37.4730    -5.4500    32.8440 ha         1 ZQZ       0.112000
     42 H6          39.4160    -6.9800    32.5390 ha         1 ZQZ       0.122000
     43 H7          38.6700    -8.7030    36.4300 ha         1 ZQZ       0.126000
     44 H8          38.1400    -9.0190    41.6320 ha         1 ZQZ       0.116000
     45 H9          39.4930    -7.2810    40.4680 ha         1 ZQZ       0.107000
     46 H10         38.7530    -6.4030    38.2560 ha         1 ZQZ       0.121000
     47 H11         34.3510    -6.7620    30.7500 ha         1 ZQZ       0.107000
     48 H12         35.4820    -9.7240    35.3350 ha         1 ZQZ       0.122000
     49 H13         37.2420   -10.7450    34.0050 ha         1 ZQZ       0.113000
     50 H14         37.5920   -10.0840    31.6340 ha         1 ZQZ       0.109000
     51 H15         36.1410    -8.3570    30.6050 ha         1 ZQZ       0.106000
     52 H16         31.9070    -9.6370    37.8250 h1         1 ZQZ       0.084700
     53 H17         31.9890   -11.8060    36.4960 hc         1 ZQZ       0.046200
     54 H18         33.5650   -12.1440    37.1970 hc         1 ZQZ       0.046200
     55 H19         32.6120   -12.2930    39.4220 hc         1 ZQZ       0.031700
     56 H20         30.9880   -11.7250    38.7720 hc         1 ZQZ       0.031700
     57 H21         41.5360   -10.3240    34.7870 h1         1 ZQZ       0.038367
     58 H22         40.9570    -9.3110    36.1260 h1         1 ZQZ       0.038367
     59 H23         39.8620   -10.4910    35.3560 h1         1 ZQZ       0.038367
     60 H24         33.4900   -10.2080    35.4570 hn         1 ZQZ       0.325500
     61 H25         35.0300    -8.9130    37.1810 hn         1 ZQZ       0.160000
     62 O36         40.2570    -8.7700    34.2260 os         1 ZQZ      -0.347100
@<TRIPOS>BOND
     1     1     2 ar  
     2     1    15 ar  
     3     1    36 1   
     4     2     6 ar  
     5     2    31 1   
     6     3     4 ar  
     7     3    16 ar  
     8     3    23 1   
     9     4     5 ar  
    10     4    37 1   
    11     5    18 ar  
    12     5    38 1   
    13     6    13 ar  
    14     6    39 1   
    15     7     8 ar  
    16     7    12 ar  
    17     7    40 1   
    18     8     9 ar  
    19     8    41 1   
    20     9    10 ar  
    21     9    42 1   
    22    10    11 ar  
    23    10    62 1   
    24    11    12 ar  
    25    11    43 1   
    26    12    36 1   
    27    13    14 ar  
    28    13    44 1   
    29    14    15 ar  
    30    14    45 1   
    31    15    46 1   
    32    16    17 ar  
    33    16    19 ar  
    34    17    18 ar  
    35    17    22 ar  
    36    18    47 1   
    37    19    20 ar  
    38    19    48 1   
    39    20    21 ar  
    40    20    49 1   
    41    21    22 ar  
    42    21    50 1   
    43    22    51 1   
    44    23    30 1   
    45    23    32 2   
    46    24    25 1   
    47    24    26 1   
    48    24    30 1   
    49    24    52 1   
    50    25    31 1   
    51    25    35 2   
    52    26    27 1   
    53    26    53 1   
    54    26    54 1   
    55    27    28 1   
    56    27    55 1   
    57    27    56 1   
    58    28    33 1   
    59    28    34 1   
    60    29    57 1   
    61    29    58 1   
    62    29    59 1   
    63    29    62 1   
    64    30    60 1   
    65    31    61 1   
@<TRIPOS>SUBSTRUCTURE
     1 ZQZ         1 TEMP              0 ****  ****    0 ROOT
