@<TRIPOS>MOLECULE
ZQZ
   62    65     1     0     0
SMALL
abcg2


@<TRIPOS>ATOM
      1 C10         36.9390    -7.6740    38.7850 ca         1 ZQZ       0.098100
      2 C11         36.3230    -8.9200    38.8920 ca         1 ZQZ      -0.040000
      3 C15         33.9210    -7.9000    33.9060 ca         1 ZQZ      -0.125600
      4 C14         33.1900    -6.9240    33.2730 ca         1 ZQZ      -0.066000
      5 C13         33.3410    -6.6680    31.9000 ca         1 ZQZ      -0.121000
      6 C12         36.6980    -9.7740    39.9210 ca         1 ZQZ      -0.092000
      7 C01         36.5880    -5.9560    35.6420 ca         1 ZQZ      -0.166000
      8 C02         37.0880    -5.9910    34.3480 ca         1 ZQZ      -0.048000
      9 C03         38.0330    -6.9230    33.9630 ca         1 ZQZ      -0.183000
     10 C04         38.4910    -7.8530    34.8950 ca         1 ZQZ       0.165100
     11 C05         38.0080    -7.8360    36.2030 ca         1 ZQZ      -0.284000
     12 C06         37.0560    -6.8850    36.5600 ca         1 ZQZ       0.185100
     13 C07         37.6790    -9.3990    40.8270 ca         1 ZQZ      -0.110000
     14 C08         38.2900    -8.1580    40.7070 ca         1 ZQZ      -0.112000
     15 C09         37.9240    -7.2950    39.6840 ca         1 ZQZ      -0.123000
     16 C16         34.9010    -8.6400    33.1760 ca         1 ZQZ      -0.003000
     17 C17         35.0430    -8.3770    31.7850 ca         1 ZQZ      -0.046000
     18 C18         34.2410    -7.3900    31.1680 ca         1 ZQZ      -0.092000
     19 C19         35.7760    -9.5910    33.7560 ca         1 ZQZ      -0.097000
     20 C20         36.6930   -10.2680    33.0000 ca         1 ZQZ      -0.096000
     21 C21         36.8030   -10.0280    31.6170 ca         1 ZQZ      -0.105000
     22 C22         36.0000    -9.0940    31.0290 ca         1 ZQZ      -0.104000
     23 C23         33.6100    -8.1030    35.3560 c          1 ZQZ       0.597700
     24 C26         33.0870    -9.7010    37.1280 c3         1 ZQZ       0.018700
     25 C27         34.0150    -9.1020    38.1820 c          1 ZQZ       0.625100
     26 C28         33.0230   -11.2260    37.2660 c3         1 ZQZ      -0.062400
     27 C29         32.5680   -11.7030    38.6330 c3         1 ZQZ      -0.217400
     28 C30         32.3610   -13.2300    38.7450 c          1 ZQZ       0.720000
     29 C37         39.8550    -9.7480    35.3310 c3         1 ZQZ       0.148900
     30 N25         33.5140    -9.3780    35.7830 ns         1 ZQZ      -0.505900
     31 N33         35.3330    -9.3070    37.9630 ns         1 ZQZ      -0.177000
     32 O24         33.4000    -7.1600    36.1020 o          1 ZQZ      -0.585100
     33 O31         32.5780   -13.9170    37.7280 o          1 ZQZ      -0.736500
     34 O32         31.9940   -13.6420    39.8630 o          1 ZQZ      -0.736500
     35 O34         33.5880    -8.5490    39.1780 o          1 ZQZ      -0.573100
     36 O35         36.5400    -6.7950    37.8200 os         1 ZQZ      -0.232200
     37 H1          32.4640    -6.3520    33.8360 ha         1 ZQZ       0.131000
     38 H2          32.7350    -5.9050    31.4290 ha         1 ZQZ       0.111000
     39 H3          36.2140   -10.7390    40.0020 ha         1 ZQZ       0.142000
     40 H4          35.8430    -5.2280    35.9330 ha         1 ZQZ       0.141000
     41 H5          36.7230    -5.2750    33.6230 ha         1 ZQZ       0.112000
     42 H6          38.4080    -6.9490    32.9490 ha         1 ZQZ       0.122000
     43 H7          38.3670    -8.5460    36.9350 ha         1 ZQZ       0.126000
     44 H8          37.9630   -10.0720    41.6240 ha         1 ZQZ       0.116000
     45 H9          39.0560    -7.8590    41.4100 ha         1 ZQZ       0.107000
     46 H10         38.3940    -6.3250    39.5850 ha         1 ZQZ       0.121000
     47 H11         34.3600    -7.2080    30.1070 ha         1 ZQZ       0.107000
     48 H12         35.7500    -9.7760    34.8190 ha         1 ZQZ       0.122000
     49 H13         37.3490   -10.9870    33.4730 ha         1 ZQZ       0.113000
     50 H14         37.5320   -10.5720    31.0300 ha         1 ZQZ       0.109000
     51 H15         36.0860    -8.8820    29.9700 ha         1 ZQZ       0.106000
     52 H16         32.0950    -9.2820    37.3220 h1         1 ZQZ       0.084700
     53 H17         32.3330   -11.5940    36.5030 hc         1 ZQZ       0.046200
     54 H18         34.0020   -11.6510    37.0240 hc         1 ZQZ       0.046200
     55 H19         33.2890   -11.4120    39.4040 hc         1 ZQZ       0.031700
     56 H20         31.6330   -11.2040    38.9100 hc         1 ZQZ       0.031700
     57 H21         40.5500   -10.3630    34.7630 h1         1 ZQZ       0.038367
     58 H22         40.3820    -9.3350    36.1950 h1         1 ZQZ       0.038367
     59 H23         39.0370   -10.3810    35.6860 h1         1 ZQZ       0.038367
     60 H24         33.5160   -10.1250    35.1050 hn         1 ZQZ       0.325500
     61 H25         35.6260    -9.7940    37.1280 hn         1 ZQZ       0.160000
     62 O36         39.4000    -8.7420    34.4520 os         1 ZQZ      -0.347100
@<TRIPOS>BOND
     1     1     2 ar  
     2     1    15 ar  
     3     1    36 1   
     4     2     6 ar  
     5     2    31 1   
     6     3     4 ar  
     7     3    16 ar  
     8     3    23 1   
     9     4     5 ar  
    10     4    37 1   
    11     5    18 ar  
    12     5    38 1   
    13     6    13 ar  
    14     6    39 1   
    15     7     8 ar  
    16     7    12 ar  
    17     7    40 1   
    18     8     9 ar  
    19     8    41 1   
    20     9    10 ar  
    21     9    42 1   
    22    10    11 ar  
    23    10    62 1   
    24    11    12 ar  
    25    11    43 1   
    26    12    36 1   
    27    13    14 ar  
    28    13    44 1   
    29    14    15 ar  
    30    14    45 1   
    31    15    46 1   
    32    16    17 ar  
    33    16    19 ar  
    34    17    18 ar  
    35    17    22 ar  
    36    18    47 1   
    37    19    20 ar  
    38    19    48 1   
    39    20    21 ar  
    40    20    49 1   
    41    21    22 ar  
    42    21    50 1   
    43    22    51 1   
    44    23    30 1   
    45    23    32 2   
    46    24    25 1   
    47    24    26 1   
    48    24    30 1   
    49    24    52 1   
    50    25    31 1   
    51    25    35 2   
    52    26    27 1   
    53    26    53 1   
    54    26    54 1   
    55    27    28 1   
    56    27    55 1   
    57    27    56 1   
    58    28    33 1   
    59    28    34 1   
    60    29    57 1   
    61    29    58 1   
    62    29    59 1   
    63    29    62 1   
    64    30    60 1   
    65    31    61 1   
@<TRIPOS>SUBSTRUCTURE
     1 ZQZ         1 TEMP              0 ****  ****    0 ROOT
