@<TRIPOS>MOLECULE
ZR1
   55    59     1     0     0
SMALL
No Charge or Current Charge


@<TRIPOS>ATOM
      1 C5         -36.7120    31.9790    -4.1890 cc         1 ZR1      -0.208200
      2 C18        -28.5570    30.2800    -6.3100 ca         1 ZR1      -0.132000
      3 C6         -35.5090    31.4300    -4.6010 cd         1 ZR1      -0.164100
      4 C3         -35.2820    35.0100    -1.9030 ca         1 ZR1       0.138900
      5 C1         -36.3840    33.0890    -3.3500 ca         1 ZR1      -0.196800
      6 C14        -29.6980    28.8460    -7.9260 ca         1 ZR1      -0.102300
      7 C15        -28.4850    28.1510    -8.1550 ca         1 ZR1      -0.087300
      8 C17        -27.3450    29.6000    -6.5480 ca         1 ZR1      -0.178300
      9 C13        -29.7470    29.9040    -6.9880 ca         1 ZR1       0.123100
     10 C16        -27.3180    28.5380    -7.4690 ca         1 ZR1       0.167000
     11 C4         -37.2050    34.0000    -2.6660 ca         1 ZR1       0.179300
     12 C2         -35.0160    33.1880    -3.2730 ca         1 ZR1       0.137500
     13 C21        -28.4290    26.9940    -9.1670 c6         1 ZR1      -0.068100
     14 C19        -30.9840    28.4330    -8.6660 c6         1 ZR1       0.204100
     15 C9         -32.5140    32.0150    -5.6880 c5         1 ZR1      -0.089400
     16 C20        -29.8220    26.4890    -9.5990 c6         1 ZR1       0.151800
     17 C8         -33.0050    31.9130    -4.2200 c5         1 ZR1       0.083300
     18 C10        -31.0810    31.3900    -5.6430 c5         1 ZR1       0.166300
     19 C12        -32.5500    30.4600    -3.9060 c5         1 ZR1       0.115300
     20 C11        -31.0500    30.5160    -4.3270 c5         1 ZR1       0.107300
     21 C7         -38.7210    33.9330    -2.7210 c3         1 ZR1      -0.151400
     22 N2         -36.6370    34.9790    -1.9280 nb         1 ZR1      -0.212000
     23 N1         -34.4380    34.1610    -2.5400 nb         1 ZR1      -0.189000
     24 N3         -34.4390    32.1730    -4.0360 na         1 ZR1      -0.178400
     25 N4         -30.7130    27.6310    -9.8840 n7         1 ZR1      -0.846400
     26 O3         -32.7020    30.1030    -2.5240 oh         1 ZR1      -0.639000
     27 O2         -30.2600    31.1270    -3.2990 oh         1 ZR1      -0.654000
     28 O1         -30.9850    30.5220    -6.8090 os         1 ZR1      -0.347100
     29 F3         -26.1560    27.8830    -7.7020 f          1 ZR1      -0.177000
     30 F1         -26.2290    29.8970    -4.4680 f          1 ZR1      -0.117500
     31 F2         -25.7730    31.3150    -6.0490 f          1 ZR1      -0.117500
     32 H1         -37.7030    31.6210    -4.4640 ha         1 ZR1       0.210000
     33 H2         -28.5370    31.0940    -5.5930 ha         1 ZR1       0.155000
     34 H3         -35.3380    30.5750    -5.2510 h4         1 ZR1       0.215000
     35 H4         -34.8230    35.7980    -1.3090 h5         1 ZR1       0.048100
     36 H5         -27.8590    26.1520    -8.7520 hc         1 ZR1       0.064200
     37 H6         -27.8770    27.3290   -10.0550 hc         1 ZR1       0.064200
     38 H7         -31.5560    29.3300    -8.9490 h1         1 ZR1       0.069200
     39 H8         -31.6130    27.8530    -7.9740 h1         1 ZR1       0.069200
     40 H9         -32.4940    33.0530    -6.0380 hc         1 ZR1       0.073200
     41 H10        -33.1740    31.4640    -6.3680 hc         1 ZR1       0.073200
     42 H11        -29.7230    25.8530   -10.4920 h1         1 ZR1       0.059200
     43 H12        -30.2580    25.8700    -8.7980 h1         1 ZR1       0.059200
     44 H13        -32.4400    32.6190    -3.5950 h1         1 ZR1       0.120700
     45 H14        -30.3170    32.1770    -5.6680 h1         1 ZR1       0.080700
     46 H15        -33.0910    29.7410    -4.5380 h1         1 ZR1       0.047700
     47 H16        -30.6800    29.5000    -4.5240 h1         1 ZR1       0.059700
     48 H17        -39.1860    34.7260    -2.1230 hc         1 ZR1       0.056367
     49 H18        -39.0770    34.0400    -3.7520 hc         1 ZR1       0.056367
     50 H19        -39.0810    32.9710    -2.3380 hc         1 ZR1       0.056367
     51 H20        -25.2220    29.4070    -6.1090 h2         1 ZR1       0.074700
     52 H21        -30.2410    28.2370   -10.5660 hn         1 ZR1       0.411000
     53 H23        -33.6630    30.1590    -2.3210 ho         1 ZR1       0.452000
     54 H24        -30.7050    30.8610    -2.4600 ho         1 ZR1       0.468000
     55 C22        -26.0780    30.0200    -5.8060 c3         1 ZR1       0.236600
@<TRIPOS>BOND
     1     1     3 2   
     2     1     5 1   
     3     1    32 1   
     4     2     8 ar  
     5     2     9 ar  
     6     2    33 1   
     7     3    24 1   
     8     3    34 1   
     9     4    22 ar  
    10     4    23 ar  
    11     4    35 1   
    12     5    11 ar  
    13     5    12 ar  
    14     6     7 ar  
    15     6     9 ar  
    16     6    14 1   
    17     7    10 ar  
    18     7    13 1   
    19     8    10 ar  
    20     8    55 1   
    21     9    28 1   
    22    10    29 1   
    23    11    21 1   
    24    11    22 ar  
    25    12    23 ar  
    26    12    24 1   
    27    13    16 1   
    28    13    36 1   
    29    13    37 1   
    30    14    25 1   
    31    14    38 1   
    32    14    39 1   
    33    15    17 1   
    34    15    18 1   
    35    15    40 1   
    36    15    41 1   
    37    16    25 1   
    38    16    42 1   
    39    16    43 1   
    40    17    19 1   
    41    17    24 1   
    42    17    44 1   
    43    18    20 1   
    44    18    28 1   
    45    18    45 1   
    46    19    20 1   
    47    19    26 1   
    48    19    46 1   
    49    20    27 1   
    50    20    47 1   
    51    21    48 1   
    52    21    49 1   
    53    21    50 1   
    54    25    52 1   
    55    26    53 1   
    56    27    54 1   
    57    30    55 1   
    58    31    55 1   
    59    51    55 1   
@<TRIPOS>SUBSTRUCTURE
     1 ZR1         1 TEMP              0 ****  ****    0 ROOT
