@<TRIPOS>MOLECULE
ZR1
   55    59     1     0     0
SMALL
bcc


@<TRIPOS>ATOM
      1 C5         -36.7050    31.8400    -4.1980 cc         1 ZR1      -0.158200
      2 C18        -28.6380    30.0290    -6.1030 ca         1 ZR1      -0.150000
      3 C6         -35.4890    31.3300    -4.5380 cd         1 ZR1      -0.114100
      4 C3         -35.2200    35.0910    -2.3070 ca         1 ZR1       0.664900
      5 C1         -36.4440    33.0480    -3.4860 ca         1 ZR1      -0.327400
      6 C14        -29.7310    28.8060    -7.8900 ca         1 ZR1      -0.102300
      7 C15        -28.5110    28.2590    -8.2720 ca         1 ZR1      -0.087300
      8 C17        -27.4090    29.5050    -6.4980 ca         1 ZR1      -0.178300
      9 C13        -29.7870    29.6860    -6.7990 ca         1 ZR1       0.123100
     10 C16        -27.3760    28.6370    -7.5660 ca         1 ZR1       0.131900
     11 C4         -37.1870    34.0560    -2.8720 ca         1 ZR1       0.507600
     12 C2         -35.0460    33.1970    -3.4350 ca         1 ZR1       0.465800
     13 C21        -28.4130    27.2820    -9.4130 c6         1 ZR1      -0.068100
     14 C19        -31.0000    28.4440    -8.6310 c6         1 ZR1       0.204100
     15 C9         -32.5660    31.7680    -5.6560 c5         1 ZR1      -0.089400
     16 C20        -29.7840    26.7220    -9.7740 c6         1 ZR1       0.151800
     17 C8         -33.0610    31.9210    -4.2210 c5         1 ZR1       0.054000
     18 C10        -31.1740    31.1400    -5.5020 c5         1 ZR1       0.143100
     19 C12        -32.5620    30.6370    -3.5690 c5         1 ZR1       0.092100
     20 C11        -31.1100    30.5640    -4.0660 c5         1 ZR1       0.084100
     21 C7         -38.6790    34.0290    -2.8510 c3         1 ZR1      -0.151400
     22 N2         -36.5550    35.0680    -2.2870 nb         1 ZR1      -0.738000
     23 N1         -34.4100    34.2050    -2.8530 nb         1 ZR1      -0.715000
     24 N3         -34.4780    32.1480    -4.0830 na         1 ZR1      -0.149100
     25 N4         -30.7980    27.7510    -9.8850 n7         1 ZR1      -0.791200
     26 O3         -32.6950    30.6910    -2.1770 oh         1 ZR1      -0.576800
     27 O2         -30.2800    31.4060    -3.3060 oh         1 ZR1      -0.591800
     28 O1         -31.0200    30.1570    -6.5060 os         1 ZR1      -0.323900
     29 F3         -26.1880    28.1300    -7.9480 f          1 ZR1      -0.141900
     30 F1         -25.8950    28.8070    -4.8530 f          1 ZR1      -0.238800
     31 F2         -26.2950    30.9440    -5.0120 f          1 ZR1      -0.238800
     32 H1         -37.6630    31.4030    -4.4310 ha         1 ZR1       0.160000
     33 H2         -28.6720    30.6990    -5.2560 ha         1 ZR1       0.173000
     34 H3         -35.2590    30.4280    -5.0820 h4         1 ZR1       0.165000
     35 H4         -34.7510    35.9370    -1.8170 h5         1 ZR1       0.048100
     36 H5         -27.7320    26.4680    -9.1580 hc         1 ZR1       0.064200
     37 H6         -27.9800    27.7830   -10.2850 hc         1 ZR1       0.064200
     38 H7         -31.5840    29.3440    -8.8250 h1         1 ZR1       0.069200
     39 H8         -31.6190    27.8200    -7.9760 h1         1 ZR1       0.069200
     40 H9         -32.5420    32.7110    -6.2000 hc         1 ZR1       0.073200
     41 H10        -33.2170    31.0820    -6.2030 hc         1 ZR1       0.073200
     42 H11        -29.7220    26.1700   -10.7130 h1         1 ZR1       0.059200
     43 H12        -30.1050    26.0090    -9.0090 h1         1 ZR1       0.059200
     44 H13        -32.5690    32.7730    -3.7460 h1         1 ZR1       0.120700
     45 H14        -30.4030    31.9100    -5.6100 h1         1 ZR1       0.080700
     46 H15        -33.1130    29.7880    -3.9970 h1         1 ZR1       0.047700
     47 H16        -30.7410    29.5300    -4.0650 h1         1 ZR1       0.059700
     48 H17        -39.0800    34.9240    -2.3810 hc         1 ZR1       0.056367
     49 H18        -39.0780    33.9540    -3.8640 hc         1 ZR1       0.056367
     50 H19        -39.0410    33.1560    -2.3030 hc         1 ZR1       0.056367
     51 H20        -25.2740    29.9290    -6.3810 h2         1 ZR1       0.074700
     52 H21        -30.5200    28.4180   -10.5950 hn         1 ZR1       0.355800
     53 H23        -32.6780    29.7960    -1.8240 ho         1 ZR1       0.413000
     54 H24        -30.4820    31.2590    -2.3740 ho         1 ZR1       0.429000
     55 C22        -26.1510    29.8100    -5.7450 c3         1 ZR1       0.479200
@<TRIPOS>BOND
     1     1     3 2   
     2     1     5 1   
     3     1    32 1   
     4     2     8 ar  
     5     2     9 ar  
     6     2    33 1   
     7     3    24 1   
     8     3    34 1   
     9     4    22 ar  
    10     4    23 ar  
    11     4    35 1   
    12     5    11 ar  
    13     5    12 ar  
    14     6     7 ar  
    15     6     9 ar  
    16     6    14 1   
    17     7    10 ar  
    18     7    13 1   
    19     8    10 ar  
    20     8    55 1   
    21     9    28 1   
    22    10    29 1   
    23    11    21 1   
    24    11    22 ar  
    25    12    23 ar  
    26    12    24 1   
    27    13    16 1   
    28    13    36 1   
    29    13    37 1   
    30    14    25 1   
    31    14    38 1   
    32    14    39 1   
    33    15    17 1   
    34    15    18 1   
    35    15    40 1   
    36    15    41 1   
    37    16    25 1   
    38    16    42 1   
    39    16    43 1   
    40    17    19 1   
    41    17    24 1   
    42    17    44 1   
    43    18    20 1   
    44    18    28 1   
    45    18    45 1   
    46    19    20 1   
    47    19    26 1   
    48    19    46 1   
    49    20    27 1   
    50    20    47 1   
    51    21    48 1   
    52    21    49 1   
    53    21    50 1   
    54    25    52 1   
    55    26    53 1   
    56    27    54 1   
    57    30    55 1   
    58    31    55 1   
    59    51    55 1   
@<TRIPOS>SUBSTRUCTURE
     1 ZR1         1 TEMP              0 ****  ****    0 ROOT
