@<TRIPOS>MOLECULE
ZR2
  239   240     1     0     0
SMALL
No Charge or Current Charge


@<TRIPOS>ATOM
      1 O4          -8.2880    26.7820     7.5400 os         1 ZR2      -0.480000
      2 O3          -6.6950    23.4420     7.3660 os         1 ZR2      -0.474100
      3 C16         -3.3790    18.8470     1.3120 c3         1 ZR2      -0.077400
      4 C15         -2.0960    18.7140     2.1710 c3         1 ZR2      -0.075400
      5 C14         -1.4530    20.0460     2.6340 c3         1 ZR2      -0.078400
      6 C13         -1.0000    20.9920     1.4990 c3         1 ZR2      -0.080400
      7 C18         -5.8140    19.6410     1.0960 c3         1 ZR2      -0.076400
      8 C17         -4.5680    19.5530     2.0100 c3         1 ZR2      -0.077400
      9 O2          -6.3080    23.9780     5.1710 o          1 ZR2      -0.481000
     10 O1          -5.1950    20.9460     7.7750 oh         1 ZR2      -0.661000
     11 C10          1.1500    22.8860     0.0420 c3         1 ZR2      -0.090100
     12 C11         -0.0050    23.3380     0.9570 c3         1 ZR2      -0.073400
     13 C12         -0.3970    22.3090     2.0430 c3         1 ZR2      -0.075400
     14 C19         -7.0360    20.3560     1.7210 c3         1 ZR2      -0.073400
     15 C20         -7.7290    19.5670     2.8620 c3         1 ZR2      -0.073400
     16 C21         -9.1080    20.1440     3.2820 c3         1 ZR2      -0.073400
     17 C22         -9.1080    21.5490     3.9470 c3         1 ZR2      -0.075400
     18 C24         -7.7900    20.9490     6.1580 c3         1 ZR2      -0.070400
     19 C25         -6.4430    21.6230     5.7630 c3         1 ZR2      -0.116700
     20 C26         -5.2120    20.8760     6.3470 c3         1 ZR2       0.176300
     21 C27         -3.8650    21.3950     5.7820 c3         1 ZR2      -0.109400
     22 C28         -2.5970    20.6540     6.2790 c3         1 ZR2      -0.076400
     23 C29         -2.6610    19.1110     6.1590 c3         1 ZR2      -0.081400
     24 C30         -1.3000    18.3690     6.1590 c3         1 ZR2      -0.075400
     25 C31         -0.3770    18.5600     7.3920 c3         1 ZR2      -0.077400
     26 C32          0.3880    19.9080     7.4400 c3         1 ZR2      -0.072400
     27 C33          1.6770    19.8840     8.2900 c3         1 ZR2      -0.075400
     28 C34          1.4510    19.6070     9.7930 c3         1 ZR2      -0.076400
     29 C35          2.7520    19.7430    10.6170 c3         1 ZR2      -0.073400
     30 C36          2.6220    19.3380    12.1030 c3         1 ZR2      -0.070400
     31 C37          1.5950    20.1790    12.9010 c3         1 ZR2      -0.075400
     32 C38          1.6940    20.0190    14.4370 c3         1 ZR2      -0.074400
     33 C39          1.5000    18.5840    14.9860 c3         1 ZR2      -0.075400
     34 C40          0.1090    17.9690    14.7060 c3         1 ZR2      -0.076400
     35 C41         -0.0990    16.6240    15.4370 c3         1 ZR2      -0.076400
     36 C42         -1.4850    15.9920    15.1830 c3         1 ZR2      -0.074400
     37 C43         -1.7030    14.6930    15.9890 c3         1 ZR2      -0.048400
     38 C44          2.2730    16.3430     5.5740 c3         1 ZR2       0.147900
     39 C46         -2.5400    11.5540    12.6640 c3         1 ZR2      -0.073400
     40 C47         -1.5830    11.3120    11.4740 c3         1 ZR2      -0.075400
     41 C48         -0.1100    11.0470    11.8770 c3         1 ZR2      -0.077400
     42 C49          0.8390    10.7710    10.6820 c3         1 ZR2      -0.074400
     43 C50          0.9420    11.9040     9.6300 c3         1 ZR2      -0.074400
     44 C51          1.4650    13.2500    10.1840 c3         1 ZR2      -0.077400
     45 C52          1.4910    14.3650     9.1150 c3         1 ZR2      -0.077400
     46 C53          2.0080    15.7280     9.6350 c3         1 ZR2      -0.071400
     47 C54          3.5010    15.7730    10.0430 c3         1 ZR2      -0.073400
     48 C55          4.4740    15.3650     8.9080 c3         1 ZR2      -0.070400
     49 C56          5.9420    15.8260     9.1010 c3         1 ZR2      -0.071400
     50 C57          6.1670    17.3640     9.1440 c3         1 ZR2      -0.072400
     51 C58          5.5160    18.1730     7.9920 c3         1 ZR2      -0.075400
     52 C59          6.0690    17.8530     6.5790 c3         1 ZR2      -0.063400
     53 C60          5.3060    18.5550     5.4230 c3         1 ZR2      -0.075400
     54 C61          4.1620    17.7170     4.7790 c3         1 ZR2       0.170300
     55 C62          3.4410    18.4800     3.6100 c3         1 ZR2      -0.080700
     56 C63          2.8870    17.5230     2.5090 c3         1 ZR2      -0.071400
     57 C64          2.2130    18.2320     1.3110 c3         1 ZR2      -0.075400
     58 C65          1.8390    17.2660     0.1600 c3         1 ZR2      -0.073400
     59 C66          0.8490    17.8640    -0.8680 c3         1 ZR2      -0.072400
     60 C67          1.3900    19.0640    -1.6860 c3         1 ZR2      -0.074400
     61 C68          0.2770    19.8770    -2.3830 c3         1 ZR2      -0.079400
     62 C69         -0.4490    19.1560    -3.5450 c3         1 ZR2      -0.072400
     63 C70         -1.8010    19.8210    -3.8940 c3         1 ZR2      -0.074400
     64 C71         -2.9420    19.4070    -2.9290 c3         1 ZR2      -0.073400
     65 C72         -4.1190    20.4070    -2.8460 c3         1 ZR2      -0.072400
     66 C73         -3.7950    21.6680    -2.0080 c3         1 ZR2      -0.078400
     67 C74         -5.0060    22.6150    -1.8360 c3         1 ZR2      -0.074400
     68 C75         -4.7210    23.8630    -0.9650 c3         1 ZR2      -0.074400
     69 C76         -4.4360    23.5550     0.5220 c3         1 ZR2      -0.090100
     70 C80         -6.4320    23.1380     6.0520 c          1 ZR2       0.627100
     71 C81         -6.8420    24.8280     7.7470 c3         1 ZR2       0.192600
     72 C82         -8.2680    25.3350     7.3730 c6         1 ZR2       0.090300
     73 C83         -9.3930    24.6630     8.2270 c6         1 ZR2       0.152300
     74 C84        -10.7640    25.2700     7.7970 c6         1 ZR2       0.190300
     75 C85        -10.7430    26.8290     7.9120 c6         1 ZR2       0.120300
     76 C86         -9.5130    27.4300     7.1460 c6         1 ZR2       0.353300
     77 C87          2.3990    19.5180     4.1110 c3         1 ZR2      -0.079100
     78 C91         -3.0530    14.0330    15.7100 cx         1 ZR2      -0.120700
     79 C92         -3.3170    13.1540    14.5060 cx         1 ZR2      -0.117700
     80 C93         -3.2330    12.5410    15.8860 cx         1 ZR2      -0.127400
     81 O5          -9.6550    27.2620     5.7370 oh         1 ZR2      -0.726000
     82 O6         -11.9890    27.3900     7.4260 oh         1 ZR2      -0.716000
     83 O7         -11.8330    24.7330     8.6040 oh         1 ZR2      -0.705000
     84 O8          -9.2060    24.8650     9.6450 oh         1 ZR2      -0.704000
     85 O9           3.2380    17.3760     5.8390 os         1 ZR2      -0.464000
     86 H1          -3.1400    19.3750     0.3830 hc         1 ZR2       0.038200
     87 H2          -3.6970    17.8400     1.0150 hc         1 ZR2       0.038200
     88 H3          -2.3270    18.1110     3.0570 hc         1 ZR2       0.038700
     89 H4          -1.3520    18.1420     1.6050 hc         1 ZR2       0.038700
     90 H5          -2.1530    20.5780     3.2850 hc         1 ZR2       0.038200
     91 H6          -0.5780    19.8100     3.2520 hc         1 ZR2       0.038200
     92 H7          -0.2620    20.4760     0.8750 hc         1 ZR2       0.040200
     93 H8          -1.8530    21.2360     0.8560 hc         1 ZR2       0.040200
     94 H9          -5.5350    20.1800     0.1830 hc         1 ZR2       0.037200
     95 H10         -6.1090    18.6320     0.7810 hc         1 ZR2       0.037200
     96 H11         -4.8180    19.0110     2.9300 hc         1 ZR2       0.037700
     97 H12         -4.2750    20.5700     2.3000 hc         1 ZR2       0.037700
     98 H13         -4.4140    20.4340     8.0740 ho         1 ZR2       0.446000
     99 H14          1.4440    23.7000    -0.6330 hc         1 ZR2       0.030700
    100 H15          2.0270    22.5960     0.6340 hc         1 ZR2       0.030700
    101 H16          0.8480    22.0330    -0.5740 hc         1 ZR2       0.030700
    102 H17          0.2920    24.2710     1.4540 hc         1 ZR2       0.038200
    103 H18         -0.8820    23.5740     0.3420 hc         1 ZR2       0.038200
    104 H19         -1.1290    22.7800     2.7100 hc         1 ZR2       0.035700
    105 H20          0.4830    22.0810     2.6580 hc         1 ZR2       0.035700
    106 H21         -6.7270    21.3430     2.0850 hc         1 ZR2       0.038200
    107 H22         -7.7680    20.5330     0.9220 hc         1 ZR2       0.038200
    108 H23         -7.8880    18.5360     2.5210 hc         1 ZR2       0.036200
    109 H24         -7.0620    19.5010     3.7280 hc         1 ZR2       0.036200
    110 H25         -9.7380    20.1890     2.3840 hc         1 ZR2       0.037700
    111 H26         -9.6030    19.4310     3.9530 hc         1 ZR2       0.037700
    112 H27         -8.3090    22.1750     3.5340 hc         1 ZR2       0.039700
    113 H28        -10.0410    22.0490     3.6590 hc         1 ZR2       0.039700
    114 H29         -9.1620    22.6000     5.8370 hc         1 ZR2       0.034200
    115 H30         -9.9310    21.0300     5.8820 hc         1 ZR2       0.034200
    116 H31         -7.9120    21.0060     7.2470 hc         1 ZR2       0.060200
    117 H32         -7.7480    19.8800     5.9200 hc         1 ZR2       0.060200
    118 H33         -6.3480    21.5380     4.6760 hc         1 ZR2       0.080700
    119 H34         -5.3100    19.8250     6.0420 h1         1 ZR2       0.031700
    120 H35         -3.9030    21.3240     4.6890 hc         1 ZR2       0.054700
    121 H36         -3.7530    22.4610     6.0140 hc         1 ZR2       0.054700
    122 H37         -1.7390    21.0270     5.7060 hc         1 ZR2       0.052200
    123 H38         -2.4200    20.9250     7.3260 hc         1 ZR2       0.052200
    124 H39         -3.1780    18.8530     5.2270 hc         1 ZR2       0.033700
    125 H40         -3.2800    18.7120     6.9720 hc         1 ZR2       0.033700
    126 H41         -1.5130    17.2970     6.0670 hc         1 ZR2       0.039200
    127 H42         -0.7450    18.6330     5.2530 hc         1 ZR2       0.039200
    128 H43         -0.9550    18.4250     8.3140 hc         1 ZR2       0.039200
    129 H44          0.3610    17.7500     7.3720 hc         1 ZR2       0.039200
    130 H45          0.6610    20.2060     6.4220 hc         1 ZR2       0.037700
    131 H46         -0.2650    20.6960     7.8310 hc         1 ZR2       0.037700
    132 H47          2.3600    19.1320     7.8800 hc         1 ZR2       0.037700
    133 H48          2.1790    20.8530     8.1800 hc         1 ZR2       0.037700
    134 H49          0.7020    20.3100    10.1760 hc         1 ZR2       0.039200
    135 H50          1.0420    18.5980     9.9240 hc         1 ZR2       0.039200
    136 H51          3.5320    19.1260    10.1570 hc         1 ZR2       0.034200
    137 H52          3.1060    20.7800    10.5590 hc         1 ZR2       0.034200
    138 H53          2.3520    18.2770    12.1640 hc         1 ZR2       0.035200
    139 H54          3.6080    19.4400    12.5730 hc         1 ZR2       0.035200
    140 H55          1.7440    21.2390    12.6610 hc         1 ZR2       0.039700
    141 H56          0.5790    19.9270    12.5730 hc         1 ZR2       0.039700
    142 H57          2.6750    20.3850    14.7640 hc         1 ZR2       0.037700
    143 H58          0.9520    20.6780    14.9060 hc         1 ZR2       0.037700
    144 H59          2.2780    17.9250    14.5830 hc         1 ZR2       0.038700
    145 H60          1.6580    18.6160    16.0710 hc         1 ZR2       0.038700
    146 H61         -0.6690    18.6740    15.0240 hc         1 ZR2       0.036700
    147 H62         -0.0150    17.8150    13.6270 hc         1 ZR2       0.036700
    148 H63          0.6810    15.9190    15.1240 hc         1 ZR2       0.038200
    149 H64          0.0280    16.7820    16.5160 hc         1 ZR2       0.038200
    150 H65         -2.2680    16.7140    15.4470 hc         1 ZR2       0.037200
    151 H66         -1.5910    15.7800    14.1120 hc         1 ZR2       0.037200
    152 H67         -1.6380    14.9260    17.0590 hc         1 ZR2       0.042200
    153 H68         -0.8810    13.9970    15.7840 hc         1 ZR2       0.042200
    154 H69          1.8470    15.9750     6.5150 h1         1 ZR2       0.027700
    155 H70          1.4420    16.7230     4.9680 h1         1 ZR2       0.027700
    156 H71          2.7360    15.4910     5.0580 h1         1 ZR2       0.027700
    157 H72         -1.2670    12.7880    13.9040 hc         1 ZR2       0.041700
    158 H73         -2.2170    13.6970    12.7380 hc         1 ZR2       0.041700
    159 H74         -3.5660    11.5900    12.2770 hc         1 ZR2       0.038200
    160 H75         -2.4940    10.7000    13.3510 hc         1 ZR2       0.038200
    161 H76         -1.6370    12.1820    10.8080 hc         1 ZR2       0.037200
    162 H77         -1.9510    10.4530    10.8990 hc         1 ZR2       0.037200
    163 H78         -0.0810    10.1800    12.5480 hc         1 ZR2       0.039200
    164 H79          0.2800    11.8910    12.4560 hc         1 ZR2       0.039200
    165 H80          0.5100     9.8540    10.1770 hc         1 ZR2       0.037700
    166 H81          1.8420    10.5610    11.0740 hc         1 ZR2       0.037700
    167 H82         -0.0350    12.0570     9.1560 hc         1 ZR2       0.037700
    168 H83          1.6160    11.5710     8.8310 hc         1 ZR2       0.037700
    169 H84          2.4730    13.0990    10.5890 hc         1 ZR2       0.038700
    170 H85          0.8300    13.5850    11.0120 hc         1 ZR2       0.038700
    171 H86          0.4710    14.5090     8.7380 hc         1 ZR2       0.037700
    172 H87          2.0920    14.0410     8.2570 hc         1 ZR2       0.037700
    173 H88          1.3980    16.0410    10.4910 hc         1 ZR2       0.036200
    174 H89          1.8450    16.4800     8.8550 hc         1 ZR2       0.036200
    175 H90          3.6730    15.1350    10.9180 hc         1 ZR2       0.035700
    176 H91          3.7190    16.7950    10.3670 hc         1 ZR2       0.035700
    177 H92          4.1030    15.7440     7.9490 hc         1 ZR2       0.034700
    178 H93          4.4660    14.2720     8.8190 hc         1 ZR2       0.034700
    179 H94          6.5460    15.4040     8.2890 hc         1 ZR2       0.035700
    180 H95          6.3330    15.3880    10.0270 hc         1 ZR2       0.035700
    181 H96          7.2460    17.5590     9.1480 hc         1 ZR2       0.037200
    182 H97          5.7900    17.7530    10.0970 hc         1 ZR2       0.037200
    183 H98          5.6700    19.2410     8.1900 hc         1 ZR2       0.041700
    184 H99          4.4330    18.0220     8.0160 hc         1 ZR2       0.041700
    185 H100         6.0640    16.7710     6.4040 hc         1 ZR2       0.038200
    186 H101         7.1200    18.1650     6.5480 hc         1 ZR2       0.038200
    187 H102         6.0330    18.7840     4.6350 hc         1 ZR2       0.044700
    188 H103         4.9210    19.5220     5.7690 hc         1 ZR2       0.044700
    189 H104         4.6230    16.8060     4.3740 h1         1 ZR2       0.030700
    190 H105         4.2200    19.0660     3.1070 hc         1 ZR2       0.046700
    191 H106         2.1640    16.8220     2.9340 hc         1 ZR2       0.033200
    192 H107         3.7190    16.9150     2.1310 hc         1 ZR2       0.033200
    193 H108         2.8830    19.0130     0.9310 hc         1 ZR2       0.041700
    194 H109         1.3010    18.7280     1.6610 hc         1 ZR2       0.041700
    195 H110         1.3770    16.3680     0.5890 hc         1 ZR2       0.035200
    196 H111         2.7500    16.9370    -0.3540 hc         1 ZR2       0.035200
    197 H112        -0.0600    18.1710    -0.3380 hc         1 ZR2       0.035700
    198 H113         0.5460    17.0680    -1.5590 hc         1 ZR2       0.035700
    199 H114         2.1170    18.7100    -2.4270 hc         1 ZR2       0.038200
    200 H115         1.9280    19.7490    -1.0210 hc         1 ZR2       0.038200
    201 H116         0.7110    20.8060    -2.7730 hc         1 ZR2       0.039700
    202 H117        -0.4520    20.1840    -1.6230 hc         1 ZR2       0.039700
    203 H118        -0.6250    18.1020    -3.3000 hc         1 ZR2       0.037200
    204 H119         0.2020    19.1680    -4.4280 hc         1 ZR2       0.037200
    205 H120        -2.0890    19.5450    -4.9160 hc         1 ZR2       0.038700
    206 H121        -1.6700    20.9100    -3.8940 hc         1 ZR2       0.038700
    207 H122        -3.3280    18.4320    -3.2510 hc         1 ZR2       0.037200
    208 H123        -2.5470    19.2500    -1.9190 hc         1 ZR2       0.037200
    209 H124        -4.4270    20.6990    -3.8580 hc         1 ZR2       0.035200
    210 H125        -4.9750    19.8950    -2.3890 hc         1 ZR2       0.035200
    211 H126        -3.4460    21.3490    -1.0200 hc         1 ZR2       0.039200
    212 H127        -2.9720    22.2230    -2.4730 hc         1 ZR2       0.039200
    213 H128        -5.3330    22.9500    -2.8280 hc         1 ZR2       0.036700
    214 H129        -5.8480    22.0610    -1.4010 hc         1 ZR2       0.036700
    215 H130        -3.8750    24.4190    -1.3890 hc         1 ZR2       0.036200
    216 H131        -5.5920    24.5290    -1.0180 hc         1 ZR2       0.036200
    217 H132        -4.3380    24.4880     1.0900 hc         1 ZR2       0.031367
    218 H133        -5.2530    22.9710     0.9620 hc         1 ZR2       0.031367
    219 H134        -3.5030    22.9910     0.6400 hc         1 ZR2       0.031367
    220 H135        -6.0850    25.4560     7.2570 h1         1 ZR2       0.065700
    221 H136        -6.7040    24.9380     8.8310 h1         1 ZR2       0.065700
    222 H137        -8.4380    25.0990     6.3120 h1         1 ZR2       0.095700
    223 H138        -9.4080    23.5860     8.0030 h1         1 ZR2       0.057700
    224 H139       -10.9290    25.0070     6.7400 h1         1 ZR2       0.065700
    225 H140       -10.6140    27.0890     8.9740 h1         1 ZR2       0.073700
    226 H141        -9.4400    28.5040     7.3830 h2         1 ZR2       0.063700
    227 H142         2.8020    20.1180     4.9350 hc         1 ZR2       0.036367
    228 H143         2.1190    20.2120     3.3100 hc         1 ZR2       0.036367
    229 H144         1.4910    19.0200     4.4640 hc         1 ZR2       0.036367
    230 H145        -3.8820    14.6610    16.0310 hc         1 ZR2       0.073700
    231 H146        -4.3120    13.2350    14.0720 hc         1 ZR2       0.070700
    232 H147        -4.1560    12.1920    16.3420 hc         1 ZR2       0.069700
    233 H148        -2.3560    11.9440    16.1250 hc         1 ZR2       0.069700
    234 H149        -8.8150    27.6060     5.3560 ho         1 ZR2       0.514000
    235 H150       -11.8380    27.5580     6.4630 ho         1 ZR2       0.510000
    236 H151       -12.5960    25.3420     8.4530 ho         1 ZR2       0.518000
    237 H152       -10.0910    24.6770    10.0410 ho         1 ZR2       0.498000
    238 C23         -9.0510    21.5630     5.4990 c3         1 ZR2      -0.071400
    239 C45         -2.2580    12.8590    13.4450 c3         1 ZR2      -0.042400
@<TRIPOS>BOND
     1     1    72 1   
     2     1    76 1   
     3     2    70 1   
     4     2    71 1   
     5     3     4 1   
     6     3     8 1   
     7     3    86 1   
     8     3    87 1   
     9     4     5 1   
    10     4    88 1   
    11     4    89 1   
    12     5     6 1   
    13     5    90 1   
    14     5    91 1   
    15     6    13 1   
    16     6    92 1   
    17     6    93 1   
    18     7     8 1   
    19     7    14 1   
    20     7    94 1   
    21     7    95 1   
    22     8    96 1   
    23     8    97 1   
    24     9    70 2   
    25    10    20 1   
    26    10    98 1   
    27    11    12 1   
    28    11    99 1   
    29    11   100 1   
    30    11   101 1   
    31    12    13 1   
    32    12   102 1   
    33    12   103 1   
    34    13   104 1   
    35    13   105 1   
    36    14    15 1   
    37    14   106 1   
    38    14   107 1   
    39    15    16 1   
    40    15   108 1   
    41    15   109 1   
    42    16    17 1   
    43    16   110 1   
    44    16   111 1   
    45    17   112 1   
    46    17   113 1   
    47    17   238 1   
    48    18    19 1   
    49    18   116 1   
    50    18   117 1   
    51    18   238 1   
    52    19    20 1   
    53    19    70 1   
    54    19   118 1   
    55    20    21 1   
    56    20   119 1   
    57    21    22 1   
    58    21   120 1   
    59    21   121 1   
    60    22    23 1   
    61    22   122 1   
    62    22   123 1   
    63    23    24 1   
    64    23   124 1   
    65    23   125 1   
    66    24    25 1   
    67    24   126 1   
    68    24   127 1   
    69    25    26 1   
    70    25   128 1   
    71    25   129 1   
    72    26    27 1   
    73    26   130 1   
    74    26   131 1   
    75    27    28 1   
    76    27   132 1   
    77    27   133 1   
    78    28    29 1   
    79    28   134 1   
    80    28   135 1   
    81    29    30 1   
    82    29   136 1   
    83    29   137 1   
    84    30    31 1   
    85    30   138 1   
    86    30   139 1   
    87    31    32 1   
    88    31   140 1   
    89    31   141 1   
    90    32    33 1   
    91    32   142 1   
    92    32   143 1   
    93    33    34 1   
    94    33   144 1   
    95    33   145 1   
    96    34    35 1   
    97    34   146 1   
    98    34   147 1   
    99    35    36 1   
   100    35   148 1   
   101    35   149 1   
   102    36    37 1   
   103    36   150 1   
   104    36   151 1   
   105    37    78 1   
   106    37   152 1   
   107    37   153 1   
   108    38    85 1   
   109    38   154 1   
   110    38   155 1   
   111    38   156 1   
   112    39    40 1   
   113    39   159 1   
   114    39   160 1   
   115    39   239 1   
   116    40    41 1   
   117    40   161 1   
   118    40   162 1   
   119    41    42 1   
   120    41   163 1   
   121    41   164 1   
   122    42    43 1   
   123    42   165 1   
   124    42   166 1   
   125    43    44 1   
   126    43   167 1   
   127    43   168 1   
   128    44    45 1   
   129    44   169 1   
   130    44   170 1   
   131    45    46 1   
   132    45   171 1   
   133    45   172 1   
   134    46    47 1   
   135    46   173 1   
   136    46   174 1   
   137    47    48 1   
   138    47   175 1   
   139    47   176 1   
   140    48    49 1   
   141    48   177 1   
   142    48   178 1   
   143    49    50 1   
   144    49   179 1   
   145    49   180 1   
   146    50    51 1   
   147    50   181 1   
   148    50   182 1   
   149    51    52 1   
   150    51   183 1   
   151    51   184 1   
   152    52    53 1   
   153    52   185 1   
   154    52   186 1   
   155    53    54 1   
   156    53   187 1   
   157    53   188 1   
   158    54    55 1   
   159    54    85 1   
   160    54   189 1   
   161    55    56 1   
   162    55    77 1   
   163    55   190 1   
   164    56    57 1   
   165    56   191 1   
   166    56   192 1   
   167    57    58 1   
   168    57   193 1   
   169    57   194 1   
   170    58    59 1   
   171    58   195 1   
   172    58   196 1   
   173    59    60 1   
   174    59   197 1   
   175    59   198 1   
   176    60    61 1   
   177    60   199 1   
   178    60   200 1   
   179    61    62 1   
   180    61   201 1   
   181    61   202 1   
   182    62    63 1   
   183    62   203 1   
   184    62   204 1   
   185    63    64 1   
   186    63   205 1   
   187    63   206 1   
   188    64    65 1   
   189    64   207 1   
   190    64   208 1   
   191    65    66 1   
   192    65   209 1   
   193    65   210 1   
   194    66    67 1   
   195    66   211 1   
   196    66   212 1   
   197    67    68 1   
   198    67   213 1   
   199    67   214 1   
   200    68    69 1   
   201    68   215 1   
   202    68   216 1   
   203    69   217 1   
   204    69   218 1   
   205    69   219 1   
   206    71    72 1   
   207    71   220 1   
   208    71   221 1   
   209    72    73 1   
   210    72   222 1   
   211    73    74 1   
   212    73    84 1   
   213    73   223 1   
   214    74    75 1   
   215    74    83 1   
   216    74   224 1   
   217    75    76 1   
   218    75    82 1   
   219    75   225 1   
   220    76    81 1   
   221    76   226 1   
   222    77   227 1   
   223    77   228 1   
   224    77   229 1   
   225    78    79 1   
   226    78    80 1   
   227    78   230 1   
   228    79    80 1   
   229    79   231 1   
   230    79   239 1   
   231    80   232 1   
   232    80   233 1   
   233    81   234 1   
   234    82   235 1   
   235    83   236 1   
   236    84   237 1   
   237   114   238 1   
   238   115   238 1   
   239   157   239 1   
   240   158   239 1   
@<TRIPOS>SUBSTRUCTURE
     1 ZR2         1 TEMP              0 ****  ****    0 ROOT
