@<TRIPOS>MOLECULE
ZR2
  239   240     1     0     0
SMALL
abcg2


@<TRIPOS>ATOM
      1 O4          -9.6430    24.2340    10.8260 os         1 ZR2      -0.480000
      2 O3          -8.0120    21.7400     8.7420 os         1 ZR2      -0.474100
      3 C16         -3.2070    21.8820     0.6490 c3         1 ZR2      -0.077400
      4 C15         -1.8610    21.2740     1.0600 c3         1 ZR2      -0.075400
      5 C14         -1.2910    21.8080     2.3940 c3         1 ZR2      -0.078400
      6 C13          0.1360    22.3720     2.2710 c3         1 ZR2      -0.080400
      7 C18         -5.7240    22.0120     1.0150 c3         1 ZR2      -0.076400
      8 C17         -4.4190    21.2680     1.3560 c3         1 ZR2      -0.077400
      9 O2          -6.4020    23.2630     8.3540 o          1 ZR2      -0.481000
     10 O1          -5.7730    19.8830     8.1060 oh         1 ZR2      -0.661000
     11 C10          2.6020    24.1490     2.8600 c3         1 ZR2      -0.090100
     12 C11          1.6550    23.6540     3.9540 c3         1 ZR2      -0.073400
     13 C12          0.9250    22.3540     3.5990 c3         1 ZR2      -0.075400
     14 C19         -6.7680    22.0790     2.1300 c3         1 ZR2      -0.073400
     15 C20         -7.2240    20.7100     2.6590 c3         1 ZR2      -0.073400
     16 C21         -8.6840    20.6730     3.1520 c3         1 ZR2      -0.073400
     17 C22         -9.1530    21.8400     4.0360 c3         1 ZR2      -0.075400
     18 C24         -7.9240    20.7790     6.1080 c3         1 ZR2      -0.070400
     19 C25         -6.7500    21.5630     6.6970 c3         1 ZR2      -0.116700
     20 C26         -5.5140    20.6520     6.9230 c3         1 ZR2       0.176300
     21 C27         -4.1860    21.4520     6.9770 c3         1 ZR2      -0.109400
     22 C28         -3.1940    21.0160     8.0560 c3         1 ZR2      -0.076400
     23 C29         -2.5780    19.6130     7.8450 c3         1 ZR2      -0.081400
     24 C30         -1.0490    19.6240     7.7230 c3         1 ZR2      -0.075400
     25 C31         -0.3160    19.6980     9.0830 c3         1 ZR2      -0.077400
     26 C32          0.7250    20.8310     9.1820 c3         1 ZR2      -0.072400
     27 C33          1.9750    20.4770     9.9910 c3         1 ZR2      -0.075400
     28 C34          1.6980    20.1060    11.4490 c3         1 ZR2      -0.076400
     29 C35          2.9830    20.0240    12.2750 c3         1 ZR2      -0.073400
     30 C36          2.8600    19.4970    13.7300 c3         1 ZR2      -0.070400
     31 C37          1.4730    19.5690    14.4060 c3         1 ZR2      -0.075400
     32 C38          1.5080    20.1080    15.8410 c3         1 ZR2      -0.074400
     33 C39          1.9660    19.0740    16.8960 c3         1 ZR2      -0.075400
     34 C40          0.8240    18.4300    17.7170 c3         1 ZR2      -0.076400
     35 C41          0.6640    16.9170    17.5180 c3         1 ZR2      -0.076400
     36 C42         -0.1290    16.2620    18.6490 c3         1 ZR2      -0.074400
     37 C43         -0.4030    14.7530    18.4480 c3         1 ZR2      -0.048400
     38 C44          2.5660    15.8880     1.6910 c3         1 ZR2       0.147900
     39 C46         -0.6340    12.3450    15.8540 c3         1 ZR2      -0.073400
     40 C47         -0.6320    11.4950    14.5800 c3         1 ZR2      -0.075400
     41 C48         -0.4260    12.2680    13.2700 c3         1 ZR2      -0.077400
     42 C49          0.0200    11.3560    12.1040 c3         1 ZR2      -0.074400
     43 C50         -0.8720    11.4290    10.8600 c3         1 ZR2      -0.074400
     44 C51         -0.9360    12.8190    10.1860 c3         1 ZR2      -0.077400
     45 C52         -0.3720    12.8220     8.7580 c3         1 ZR2      -0.077400
     46 C53         -0.6810    14.1100     7.9670 c3         1 ZR2      -0.071400
     47 C54          0.4720    15.1260     7.7910 c3         1 ZR2      -0.073400
     48 C55          1.8650    14.5430     7.5610 c3         1 ZR2      -0.070400
     49 C56          3.0060    15.5610     7.2330 c3         1 ZR2      -0.071400
     50 C57          2.6590    17.0600     7.2870 c3         1 ZR2      -0.072400
     51 C58          2.3400    17.6870     5.9270 c3         1 ZR2      -0.075400
     52 C59          3.5550    17.8150     5.0030 c3         1 ZR2      -0.063400
     53 C60          3.3160    18.7590     3.8090 c3         1 ZR2      -0.075400
     54 C61          3.2590    18.0600     2.4520 c3         1 ZR2       0.170300
     55 C62          2.8950    19.0520     1.3150 c3         1 ZR2      -0.080700
     56 C63          3.5390    18.6410    -0.0480 c3         1 ZR2      -0.071400
     57 C64          2.6060    18.3880    -1.2310 c3         1 ZR2      -0.075400
     58 C65          3.3370    17.7710    -2.4270 c3         1 ZR2      -0.073400
     59 C66          2.4640    17.5170    -3.6660 c3         1 ZR2      -0.072400
     60 C67          1.5620    18.6770    -4.0840 c3         1 ZR2      -0.074400
     61 C68          0.4660    18.3120    -5.0890 c3         1 ZR2      -0.079400
     62 C69          0.9190    18.1560    -6.5490 c3         1 ZR2      -0.072400
     63 C70         -0.1410    18.5680    -7.5850 c3         1 ZR2      -0.074400
     64 C71         -1.5110    17.8610    -7.4250 c3         1 ZR2      -0.073400
     65 C72         -2.7200    18.7740    -7.1690 c3         1 ZR2      -0.072400
     66 C73         -2.6450    19.6720    -5.9370 c3         1 ZR2      -0.078400
     67 C74         -3.7780    20.7000    -5.8610 c3         1 ZR2      -0.074400
     68 C75         -3.9320    21.3450    -4.4790 c3         1 ZR2      -0.074400
     69 C76         -4.4720    20.4010    -3.4050 c3         1 ZR2      -0.090100
     70 C80         -7.0500    22.3070     7.9890 c          1 ZR2       0.627100
     71 C81         -9.0780    22.4280     9.4360 c3         1 ZR2       0.192600
     72 C82         -8.9240    23.9350     9.6180 c6         1 ZR2       0.090300
     73 C83         -9.4180    24.7860     8.4450 c6         1 ZR2       0.152300
     74 C84         -9.3330    26.2600     8.8170 c6         1 ZR2       0.190300
     75 C85        -10.0760    26.5210    10.1180 c6         1 ZR2       0.120300
     76 C86         -9.5800    25.5870    11.2290 c6         1 ZR2       0.353300
     77 C87          1.3790    19.2630     1.2610 c3         1 ZR2      -0.079100
     78 C91         -1.8810    14.3980    18.3670 cx         1 ZR2      -0.120700
     79 C92         -2.4640    13.7360    17.1310 cx         1 ZR2      -0.117700
     80 C93         -2.3090    12.9610    18.4160 cx         1 ZR2      -0.127400
     81 O5          -8.2680    25.9610    11.5830 oh         1 ZR2      -0.726000
     82 O6          -9.8930    27.8950    10.4380 oh         1 ZR2      -0.716000
     83 O7          -9.8600    27.0400     7.7510 oh         1 ZR2      -0.705000
     84 O8         -10.7750    24.5060     8.0980 oh         1 ZR2      -0.704000
     85 O9           2.3310    16.9780     2.5650 os         1 ZR2      -0.464000
     86 H1          -3.1940    22.9540     0.8750 hc         1 ZR2       0.038200
     87 H2          -3.3450    21.7850    -0.4330 hc         1 ZR2       0.038200
     88 H3          -1.9610    20.1860     1.1100 hc         1 ZR2       0.038700
     89 H4          -1.1370    21.4860     0.2710 hc         1 ZR2       0.038700
     90 H5          -1.9510    22.5960     2.7670 hc         1 ZR2       0.038200
     91 H6          -1.2920    21.0090     3.1370 hc         1 ZR2       0.038200
     92 H7           0.6740    21.7770     1.5280 hc         1 ZR2       0.040200
     93 H8           0.0750    23.3890     1.8740 hc         1 ZR2       0.040200
     94 H9          -5.4660    23.0370     0.7270 hc         1 ZR2       0.037200
     95 H10         -6.1770    21.5540     0.1290 hc         1 ZR2       0.037200
     96 H11         -4.5050    20.2180     1.0660 hc         1 ZR2       0.037700
     97 H12         -4.2490    21.2940     2.4380 hc         1 ZR2       0.037700
     98 H13         -5.1070    19.1890     8.1740 ho         1 ZR2       0.446000
     99 H14          3.1230    25.0570     3.1680 hc         1 ZR2       0.030700
    100 H15          3.3470    23.3860     2.6160 hc         1 ZR2       0.030700
    101 H16          2.0670    24.3830     1.9380 hc         1 ZR2       0.030700
    102 H17          2.2400    23.4790     4.8620 hc         1 ZR2       0.038200
    103 H18          0.9220    24.4360     4.1810 hc         1 ZR2       0.038200
    104 H19          0.2390    22.1040     4.4150 hc         1 ZR2       0.035700
    105 H20          1.6560    21.5420     3.5650 hc         1 ZR2       0.035700
    106 H21         -6.3870    22.6910     2.9540 hc         1 ZR2       0.038200
    107 H22         -7.6370    22.6170     1.7380 hc         1 ZR2       0.038200
    108 H23         -7.1280    19.9750     1.8530 hc         1 ZR2       0.036200
    109 H24         -6.5420    20.3850     3.4490 hc         1 ZR2       0.036200
    110 H25         -9.3220    20.6400     2.2640 hc         1 ZR2       0.037700
    111 H26         -8.8640    19.7200     3.6600 hc         1 ZR2       0.037700
    112 H27         -8.6040    22.7430     3.7610 hc         1 ZR2       0.039700
    113 H28        -10.1940    22.0560     3.7860 hc         1 ZR2       0.039700
    114 H29         -9.0060    22.6610     6.0150 hc         1 ZR2       0.034200
    115 H30        -10.0150    21.2380     5.9160 hc         1 ZR2       0.034200
    116 H31         -8.3160    20.1040     6.8670 hc         1 ZR2       0.060200
    117 H32         -7.5320    20.1480     5.3140 hc         1 ZR2       0.060200
    118 H33         -6.4400    22.3310     5.9850 hc         1 ZR2       0.080700
    119 H34         -5.4740    19.9680     6.0720 h1         1 ZR2       0.031700
    120 H35         -3.7190    21.3670     5.9940 hc         1 ZR2       0.054700
    121 H36         -4.4140    22.5060     7.1340 hc         1 ZR2       0.054700
    122 H37         -2.3850    21.7520     8.0720 hc         1 ZR2       0.052200
    123 H38         -3.6790    21.0780     9.0300 hc         1 ZR2       0.052200
    124 H39         -3.0050    19.1490     6.9490 hc         1 ZR2       0.033700
    125 H40         -2.8560    18.9500     8.6700 hc         1 ZR2       0.033700
    126 H41         -0.7260    18.7340     7.1770 hc         1 ZR2       0.039200
    127 H42         -0.7580    20.4740     7.0980 hc         1 ZR2       0.039200
    128 H43         -1.0610    19.8100     9.8750 hc         1 ZR2       0.039200
    129 H44          0.1740    18.7420     9.2750 hc         1 ZR2       0.039200
    130 H45          1.0400    21.0960     8.1690 hc         1 ZR2       0.037700
    131 H46          0.2590    21.7280     9.6010 hc         1 ZR2       0.037700
    132 H47          2.4820    19.6400     9.4950 hc         1 ZR2       0.037700
    133 H48          2.6670    21.3260     9.9660 hc         1 ZR2       0.037700
    134 H49          1.0380    20.8660    11.8780 hc         1 ZR2       0.039200
    135 H50          1.1540    19.1600    11.5040 hc         1 ZR2       0.039200
    136 H51          3.6830    19.3760    11.7390 hc         1 ZR2       0.034200
    137 H52          3.4320    21.0220    12.2830 hc         1 ZR2       0.034200
    138 H53          3.1810    18.4520    13.7210 hc         1 ZR2       0.035200
    139 H54          3.5860    20.0290    14.3490 hc         1 ZR2       0.035200
    140 H55          0.8080    20.2150    13.8320 hc         1 ZR2       0.039700
    141 H56          1.0010    18.5830    14.4040 hc         1 ZR2       0.039700
    142 H57          2.1630    20.9850    15.8750 hc         1 ZR2       0.037700
    143 H58          0.5130    20.4680    16.1140 hc         1 ZR2       0.037700
    144 H59          2.5090    18.2780    16.3810 hc         1 ZR2       0.038700
    145 H60          2.6750    19.5420    17.5810 hc         1 ZR2       0.038700
    146 H61          1.0140    18.5980    18.7820 hc         1 ZR2       0.036700
    147 H62         -0.1270    18.9230    17.4980 hc         1 ZR2       0.036700
    148 H63          0.1570    16.7190    16.5670 hc         1 ZR2       0.038200
    149 H64          1.6510    16.4480    17.4550 hc         1 ZR2       0.038200
    150 H65          0.4270    16.4010    19.5800 hc         1 ZR2       0.037200
    151 H66         -1.0780    16.7940    18.7730 hc         1 ZR2       0.037200
    152 H67          0.0510    14.1960    19.2720 hc         1 ZR2       0.042200
    153 H68          0.1140    14.4130    17.5480 hc         1 ZR2       0.042200
    154 H69          1.8870    15.0880     1.9860 h1         1 ZR2       0.027700
    155 H70          2.3680    16.1460     0.6460 h1         1 ZR2       0.027700
    156 H71          3.6000    15.5330     1.7760 h1         1 ZR2       0.027700
    157 H72         -1.1660    14.4350    15.5690 hc         1 ZR2       0.041700
    158 H73         -2.3860    13.3000    15.0690 hc         1 ZR2       0.041700
    159 H74         -0.8480    11.6770    16.6890 hc         1 ZR2       0.038200
    160 H75          0.3760    12.7240    16.0360 hc         1 ZR2       0.038200
    161 H76         -1.5850    10.9570    14.5230 hc         1 ZR2       0.037200
    162 H77          0.1550    10.7400    14.6740 hc         1 ZR2       0.037200
    163 H78          0.3270    13.0420    13.4450 hc         1 ZR2       0.039200
    164 H79         -1.3460    12.7940    13.0080 hc         1 ZR2       0.039200
    165 H80          0.0000    10.3200    12.4560 hc         1 ZR2       0.037700
    166 H81          1.0550    11.5780    11.8290 hc         1 ZR2       0.037700
    167 H82         -1.8830    11.1370    11.1620 hc         1 ZR2       0.037700
    168 H83         -0.5350    10.6860    10.1330 hc         1 ZR2       0.037700
    169 H84         -0.3630    13.5350    10.7830 hc         1 ZR2       0.038700
    170 H85         -1.9660    13.1790    10.1600 hc         1 ZR2       0.038700
    171 H86         -0.8000    11.9710     8.2210 hc         1 ZR2       0.037700
    172 H87          0.6990    12.6270     8.8030 hc         1 ZR2       0.037700
    173 H88         -1.4950    14.6400     8.4680 hc         1 ZR2       0.036200
    174 H89         -1.0420    13.8320     6.9730 hc         1 ZR2       0.036200
    175 H90          0.4930    15.7720     8.6700 hc         1 ZR2       0.035700
    176 H91          0.2060    15.7840     6.9600 hc         1 ZR2       0.035700
    177 H92          1.8070    13.8050     6.7540 hc         1 ZR2       0.034700
    178 H93          2.1600    13.9840     8.4490 hc         1 ZR2       0.034700
    179 H94          3.3920    15.3200     6.2400 hc         1 ZR2       0.035700
    180 H95          3.8290    15.3620     7.9220 hc         1 ZR2       0.035700
    181 H96          3.5040    17.6090     7.7130 hc         1 ZR2       0.037200
    182 H97          1.8270    17.2300     7.9670 hc         1 ZR2       0.037200
    183 H98          1.9340    18.6900     6.0910 hc         1 ZR2       0.041700
    184 H99          1.5500    17.1200     5.4230 hc         1 ZR2       0.041700
    185 H100         3.8560    16.8340     4.6300 hc         1 ZR2       0.038200
    186 H101         4.3930    18.1920     5.5970 hc         1 ZR2       0.038200
    187 H102         4.1110    19.5060     3.7560 hc         1 ZR2       0.044700
    188 H103         2.3860    19.3120     3.9620 hc         1 ZR2       0.044700
    189 H104         4.2480    17.6320     2.2440 h1         1 ZR2       0.030700
    190 H105         3.3460    20.0040     1.6050 hc         1 ZR2       0.046700
    191 H106         4.1750    17.7630     0.1010 hc         1 ZR2       0.033200
    192 H107         4.2360    19.4300    -0.3470 hc         1 ZR2       0.033200
    193 H108         2.1240    19.3230    -1.5190 hc         1 ZR2       0.041700
    194 H109         1.7950    17.7130    -0.9410 hc         1 ZR2       0.041700
    195 H110         3.7800    16.8220    -2.1100 hc         1 ZR2       0.035200
    196 H111         4.1730    18.4270    -2.7010 hc         1 ZR2       0.035200
    197 H112         1.8350    16.6390    -3.4800 hc         1 ZR2       0.035700
    198 H113         3.1150    17.2320    -4.5000 hc         1 ZR2       0.035700
    199 H114         2.1670    19.5000    -4.4810 hc         1 ZR2       0.038200
    200 H115         1.0650    19.0650    -3.1970 hc         1 ZR2       0.038200
    201 H116        -0.2880    19.0970    -5.0400 hc         1 ZR2       0.039700
    202 H117        -0.0380    17.4020    -4.7520 hc         1 ZR2       0.039700
    203 H118         1.1880    17.1120    -6.7360 hc         1 ZR2       0.037200
    204 H119         1.8210    18.7530    -6.7170 hc         1 ZR2       0.037200
    205 H120         0.2560    18.3260    -8.5730 hc         1 ZR2       0.038700
    206 H121        -0.2780    19.6530    -7.5500 hc         1 ZR2       0.038700
    207 H122        -1.7220    17.3000    -8.3380 hc         1 ZR2       0.037200
    208 H123        -1.4480    17.1260    -6.6180 hc         1 ZR2       0.037200
    209 H124        -2.8750    19.4090    -8.0500 hc         1 ZR2       0.035200
    210 H125        -3.6160    18.1470    -7.0970 hc         1 ZR2       0.035200
    211 H126        -2.6420    19.0590    -5.0300 hc         1 ZR2       0.039200
    212 H127        -1.6990    20.2190    -5.9320 hc         1 ZR2       0.039200
    213 H128        -3.5980    21.4790    -6.6080 hc         1 ZR2       0.036700
    214 H129        -4.7280    20.2220    -6.1330 hc         1 ZR2       0.036700
    215 H130        -2.9650    21.7460    -4.1560 hc         1 ZR2       0.036200
    216 H131        -4.6030    22.2060    -4.5610 hc         1 ZR2       0.036200
    217 H132        -4.5350    20.9000    -2.4350 hc         1 ZR2       0.031367
    218 H133        -5.4650    20.0320    -3.6720 hc         1 ZR2       0.031367
    219 H134        -3.8260    19.5300    -3.2720 hc         1 ZR2       0.031367
    220 H135        -9.1130    21.9890    10.4310 h1         1 ZR2       0.065700
    221 H136        -9.9950    22.1610     8.9100 h1         1 ZR2       0.065700
    222 H137        -7.8700    24.1600     9.7720 h1         1 ZR2       0.095700
    223 H138        -8.7680    24.6050     7.5830 h1         1 ZR2       0.057700
    224 H139        -8.2760    26.5030     8.9720 h1         1 ZR2       0.065700
    225 H140       -11.1370    26.3040     9.9650 h1         1 ZR2       0.073700
    226 H141       -10.2430    25.6440    12.0960 h2         1 ZR2       0.063700
    227 H142         1.0030    19.5770     2.2340 hc         1 ZR2       0.036367
    228 H143         1.1120    20.0560     0.5600 hc         1 ZR2       0.036367
    229 H144         0.8520    18.3550     0.9730 hc         1 ZR2       0.036367
    230 H145        -2.5180    15.1100    18.8810 hc         1 ZR2       0.073700
    231 H146        -3.4870    14.0330    16.9310 hc         1 ZR2       0.070700
    232 H147        -3.2270    12.7280    18.9420 hc         1 ZR2       0.069700
    233 H148        -1.5360    12.2080    18.4950 hc         1 ZR2       0.069700
    234 H149        -7.9850    25.3940    12.3130 ho         1 ZR2       0.514000
    235 H150       -10.3660    28.0960    11.2550 ho         1 ZR2       0.510000
    236 H151        -9.7570    27.9680     8.0010 ho         1 ZR2       0.518000
    237 H152       -10.8410    23.5940     7.7940 ho         1 ZR2       0.498000
    238 C23         -9.0690    21.6630     5.5740 c3         1 ZR2      -0.071400
    239 C45         -1.6530    13.4990    15.8570 c3         1 ZR2      -0.042400
@<TRIPOS>BOND
     1     1    72 1   
     2     1    76 1   
     3     2    70 1   
     4     2    71 1   
     5     3     4 1   
     6     3     8 1   
     7     3    86 1   
     8     3    87 1   
     9     4     5 1   
    10     4    88 1   
    11     4    89 1   
    12     5     6 1   
    13     5    90 1   
    14     5    91 1   
    15     6    13 1   
    16     6    92 1   
    17     6    93 1   
    18     7     8 1   
    19     7    14 1   
    20     7    94 1   
    21     7    95 1   
    22     8    96 1   
    23     8    97 1   
    24     9    70 2   
    25    10    20 1   
    26    10    98 1   
    27    11    12 1   
    28    11    99 1   
    29    11   100 1   
    30    11   101 1   
    31    12    13 1   
    32    12   102 1   
    33    12   103 1   
    34    13   104 1   
    35    13   105 1   
    36    14    15 1   
    37    14   106 1   
    38    14   107 1   
    39    15    16 1   
    40    15   108 1   
    41    15   109 1   
    42    16    17 1   
    43    16   110 1   
    44    16   111 1   
    45    17   112 1   
    46    17   113 1   
    47    17   238 1   
    48    18    19 1   
    49    18   116 1   
    50    18   117 1   
    51    18   238 1   
    52    19    20 1   
    53    19    70 1   
    54    19   118 1   
    55    20    21 1   
    56    20   119 1   
    57    21    22 1   
    58    21   120 1   
    59    21   121 1   
    60    22    23 1   
    61    22   122 1   
    62    22   123 1   
    63    23    24 1   
    64    23   124 1   
    65    23   125 1   
    66    24    25 1   
    67    24   126 1   
    68    24   127 1   
    69    25    26 1   
    70    25   128 1   
    71    25   129 1   
    72    26    27 1   
    73    26   130 1   
    74    26   131 1   
    75    27    28 1   
    76    27   132 1   
    77    27   133 1   
    78    28    29 1   
    79    28   134 1   
    80    28   135 1   
    81    29    30 1   
    82    29   136 1   
    83    29   137 1   
    84    30    31 1   
    85    30   138 1   
    86    30   139 1   
    87    31    32 1   
    88    31   140 1   
    89    31   141 1   
    90    32    33 1   
    91    32   142 1   
    92    32   143 1   
    93    33    34 1   
    94    33   144 1   
    95    33   145 1   
    96    34    35 1   
    97    34   146 1   
    98    34   147 1   
    99    35    36 1   
   100    35   148 1   
   101    35   149 1   
   102    36    37 1   
   103    36   150 1   
   104    36   151 1   
   105    37    78 1   
   106    37   152 1   
   107    37   153 1   
   108    38    85 1   
   109    38   154 1   
   110    38   155 1   
   111    38   156 1   
   112    39    40 1   
   113    39   159 1   
   114    39   160 1   
   115    39   239 1   
   116    40    41 1   
   117    40   161 1   
   118    40   162 1   
   119    41    42 1   
   120    41   163 1   
   121    41   164 1   
   122    42    43 1   
   123    42   165 1   
   124    42   166 1   
   125    43    44 1   
   126    43   167 1   
   127    43   168 1   
   128    44    45 1   
   129    44   169 1   
   130    44   170 1   
   131    45    46 1   
   132    45   171 1   
   133    45   172 1   
   134    46    47 1   
   135    46   173 1   
   136    46   174 1   
   137    47    48 1   
   138    47   175 1   
   139    47   176 1   
   140    48    49 1   
   141    48   177 1   
   142    48   178 1   
   143    49    50 1   
   144    49   179 1   
   145    49   180 1   
   146    50    51 1   
   147    50   181 1   
   148    50   182 1   
   149    51    52 1   
   150    51   183 1   
   151    51   184 1   
   152    52    53 1   
   153    52   185 1   
   154    52   186 1   
   155    53    54 1   
   156    53   187 1   
   157    53   188 1   
   158    54    55 1   
   159    54    85 1   
   160    54   189 1   
   161    55    56 1   
   162    55    77 1   
   163    55   190 1   
   164    56    57 1   
   165    56   191 1   
   166    56   192 1   
   167    57    58 1   
   168    57   193 1   
   169    57   194 1   
   170    58    59 1   
   171    58   195 1   
   172    58   196 1   
   173    59    60 1   
   174    59   197 1   
   175    59   198 1   
   176    60    61 1   
   177    60   199 1   
   178    60   200 1   
   179    61    62 1   
   180    61   201 1   
   181    61   202 1   
   182    62    63 1   
   183    62   203 1   
   184    62   204 1   
   185    63    64 1   
   186    63   205 1   
   187    63   206 1   
   188    64    65 1   
   189    64   207 1   
   190    64   208 1   
   191    65    66 1   
   192    65   209 1   
   193    65   210 1   
   194    66    67 1   
   195    66   211 1   
   196    66   212 1   
   197    67    68 1   
   198    67   213 1   
   199    67   214 1   
   200    68    69 1   
   201    68   215 1   
   202    68   216 1   
   203    69   217 1   
   204    69   218 1   
   205    69   219 1   
   206    71    72 1   
   207    71   220 1   
   208    71   221 1   
   209    72    73 1   
   210    72   222 1   
   211    73    74 1   
   212    73    84 1   
   213    73   223 1   
   214    74    75 1   
   215    74    83 1   
   216    74   224 1   
   217    75    76 1   
   218    75    82 1   
   219    75   225 1   
   220    76    81 1   
   221    76   226 1   
   222    77   227 1   
   223    77   228 1   
   224    77   229 1   
   225    78    79 1   
   226    78    80 1   
   227    78   230 1   
   228    79    80 1   
   229    79   231 1   
   230    79   239 1   
   231    80   232 1   
   232    80   233 1   
   233    81   234 1   
   234    82   235 1   
   235    83   236 1   
   236    84   237 1   
   237   114   238 1   
   238   115   238 1   
   239   157   239 1   
   240   158   239 1   
@<TRIPOS>SUBSTRUCTURE
     1 ZR2         1 TEMP              0 ****  ****    0 ROOT
