@<TRIPOS>MOLECULE
ZR3
   24    25     1     0     0
SMALL
abcg2


@<TRIPOS>ATOM
      1 C02         18.2660   167.9710    23.6930 c          1 ZR3       0.718600
      2 C04         19.4930   168.6560    24.3020 ca         1 ZR3      -0.094600
      3 C05         20.1410   169.7550    23.7440 ca         1 ZR3       0.131000
      4 C07         21.2920   170.2690    24.3200 ca         1 ZR3      -0.119000
      5 C08         21.8240   169.6930    25.4600 ca         1 ZR3      -0.182000
      6 C09         21.1860   168.6070    26.0620 ca         1 ZR3      -0.038000
      7 C10         20.0240   168.1120    25.4680 ca         1 ZR3      -0.099000
      8 C12         23.1580   168.1320    27.5110 c5         1 ZR3       0.094000
      9 C13         23.3090   167.3280    28.8150 c5         1 ZR3       0.088000
     10 C15         21.0550   167.3250    28.1740 c          1 ZR3       0.610000
     11 N11         21.7400   168.0350    27.2080 n          1 ZR3      -0.240400
     12 N14         21.9730   166.8380    29.0410 ns         1 ZR3      -0.530900
     13 O01         17.4130   167.5730    24.5070 o          1 ZR3      -0.700500
     14 O03         18.2620   167.8450    22.4580 o          1 ZR3      -0.700500
     15 CL06        19.5140   170.5840    22.3490 cl         1 ZR3      -0.221000
     16 H1          21.7840   171.1280    23.8830 ha         1 ZR3       0.100000
     17 H2          22.7280   170.1150    25.8770 ha         1 ZR3       0.087000
     18 H3          19.5130   167.2670    25.9000 ha         1 ZR3       0.155000
     19 H4          23.7530   167.7140    26.6970 h1         1 ZR3       0.046700
     20 H5          23.4700   169.1670    27.6560 h1         1 ZR3       0.046700
     21 H6          24.0240   166.5120    28.7040 h1         1 ZR3       0.034200
     22 H8          23.6490   167.9610    29.6350 h1         1 ZR3       0.034200
     23 H9          21.6820   166.4550    29.9250 hn         1 ZR3       0.328500
     24 O16         19.8500   167.1620    28.2370 o          1 ZR3      -0.548000
@<TRIPOS>BOND
     1     1     2 1   
     2     1    13 1   
     3     1    14 1   
     4     2     3 ar  
     5     2     7 ar  
     6     3     4 ar  
     7     3    15 1   
     8     4     5 ar  
     9     4    16 1   
    10     5     6 ar  
    11     5    17 1   
    12     6     7 ar  
    13     6    11 1   
    14     7    18 1   
    15     8     9 1   
    16     8    11 1   
    17     8    19 1   
    18     8    20 1   
    19     9    12 1   
    20     9    21 1   
    21     9    22 1   
    22    10    11 1   
    23    10    12 1   
    24    10    24 2   
    25    12    23 1   
@<TRIPOS>SUBSTRUCTURE
     1 ZR3         1 TEMP              0 ****  ****    0 ROOT
