@<TRIPOS>MOLECULE
ZR3
   24    25     1     0     0
SMALL
No Charge or Current Charge


@<TRIPOS>ATOM
      1 C02         18.2600   168.0100    23.6520 c          1 ZR3       0.718600
      2 C04         19.4970   168.6160    24.2540 ca         1 ZR3      -0.094600
      3 C05         20.0760   169.7780    23.7090 ca         1 ZR3       0.131000
      4 C07         21.2190   170.3330    24.3050 ca         1 ZR3      -0.119000
      5 C08         21.8000   169.7260    25.4300 ca         1 ZR3      -0.182000
      6 C09         21.2730   168.5290    25.9580 ca         1 ZR3      -0.038000
      7 C10         20.0820   168.0200    25.3920 ca         1 ZR3      -0.099000
      8 C12         23.2310   168.1250    27.5550 c5         1 ZR3       0.094000
      9 C13         23.3430   167.2660    28.8620 c5         1 ZR3       0.088000
     10 C15         21.0840   167.3800    28.2130 c          1 ZR3       0.610000
     11 N11         21.8020   168.0150    27.2000 n          1 ZR3      -0.240400
     12 N14         21.9440   166.9880    29.1880 ns         1 ZR3      -0.530900
     13 O01         17.2670   167.9140    24.3610 o          1 ZR3      -0.700500
     14 O03         18.3260   167.5610    22.5160 o          1 ZR3      -0.700500
     15 Cl06        19.3660   170.6050    22.3210 cl         1 ZR3      -0.221000
     16 H1          21.6470   171.2480    23.9020 ha         1 ZR3       0.100000
     17 H2          22.6660   170.1990    25.8860 ha         1 ZR3       0.087000
     18 H3          19.6170   167.1270    25.8030 ha         1 ZR3       0.155000
     19 H4          23.8770   167.7380    26.7560 h1         1 ZR3       0.046700
     20 H5          23.5050   169.1690    27.7520 h1         1 ZR3       0.046700
     21 H6          23.8980   166.3370    28.6780 h1         1 ZR3       0.034200
     22 H8          23.8530   167.8160    29.6630 h1         1 ZR3       0.034200
     23 H9          21.5890   166.5010    30.0020 hn         1 ZR3       0.328500
     24 O16         19.8790   167.2030    28.2680 o          1 ZR3      -0.548000
@<TRIPOS>BOND
     1     1     2 1   
     2     1    13 1   
     3     1    14 1   
     4     2     3 ar  
     5     2     7 ar  
     6     3     4 ar  
     7     3    15 1   
     8     4     5 ar  
     9     4    16 1   
    10     5     6 ar  
    11     5    17 1   
    12     6     7 ar  
    13     6    11 1   
    14     7    18 1   
    15     8     9 1   
    16     8    11 1   
    17     8    19 1   
    18     8    20 1   
    19     9    12 1   
    20     9    21 1   
    21     9    22 1   
    22    10    11 1   
    23    10    12 1   
    24    10    24 2   
    25    12    23 1   
@<TRIPOS>SUBSTRUCTURE
     1 ZR3         1 TEMP              0 ****  ****    0 ROOT
