@<TRIPOS>MOLECULE
ZR4
   43    46     1     0     0
SMALL
No Charge or Current Charge


@<TRIPOS>ATOM
      1 C17        -26.1780   -29.3550   -37.7620 ca         1 ZR4      -0.115000
      2 C16        -25.0160   -28.5810   -37.5880 ca         1 ZR4      -0.075000
      3 C5         -33.7380   -31.9340   -39.4540 cc         1 ZR4      -0.214200
      4 C13        -27.2280   -27.5140   -38.9570 ca         1 ZR4      -0.137000
      5 C6         -32.4580   -31.4040   -39.4440 cd         1 ZR4      -0.164100
      6 C3         -33.6310   -33.7650   -43.0780 ca         1 ZR4       0.177900
      7 C1         -33.8740   -32.6340   -40.6970 ca         1 ZR4      -0.258800
      8 C12        -27.2960   -28.8310   -38.4460 ca         1 ZR4      -0.108300
      9 C14        -26.0680   -26.7430   -38.7820 ca         1 ZR4       0.181000
     10 C15        -24.9580   -27.2730   -38.0970 ca         1 ZR4       0.071000
     11 C2         -32.6980   -32.5130   -41.3950 ca         1 ZR4       0.167500
     12 C4         -34.9380   -33.3540   -41.2490 ca         1 ZR4       0.427900
     13 C9         -28.7190   -29.7470   -41.2940 c5         1 ZR4       0.108300
     14 C10        -30.2550   -29.8810   -41.4710 c5         1 ZR4       0.137300
     15 C8         -28.5050   -30.5380   -39.9530 c5         1 ZR4       0.144300
     16 C7         -30.4380   -31.3720   -41.0390 c5         1 ZR4       0.315300
     17 C11        -28.5420   -29.7010   -38.6290 c3         1 ZR4       0.205600
     18 N1         -32.5570   -33.0840   -42.6100 nb         1 ZR4      -0.222000
     19 N2         -34.8230   -33.9310   -42.4530 nb         1 ZR4      -0.301000
     20 N3         -31.7970   -31.7590   -40.6490 na         1 ZR4      -0.190400
     21 O1         -29.5370   -31.5620   -39.9190 os         1 ZR4      -0.448000
     22 O3         -28.0370   -30.3510   -42.4140 oh         1 ZR4      -0.691000
     23 O4         -30.6200   -29.6080   -42.8330 oh         1 ZR4      -0.674000
     24 O2         -29.7260   -28.8910   -38.5240 oh         1 ZR4      -0.719000
     25 F1         -26.0260   -25.4850   -39.2800 f          1 ZR4      -0.158000
     26 Cl1        -23.4940   -26.3170   -37.8710 cl         1 ZR4      -0.160000
     27 H13        -26.2060   -30.3680   -37.3640 ha         1 ZR4       0.126000
     28 H12        -24.1610   -28.9950   -37.0600 ha         1 ZR4       0.137000
     29 H2         -34.4780   -31.8200   -38.6630 ha         1 ZR4       0.198000
     30 H11        -28.0710   -27.0810   -39.4890 ha         1 ZR4       0.145000
     31 H3         -31.9660   -30.8040   -38.6820 h4         1 ZR4       0.223000
     32 H1         -33.5250   -34.2290   -44.0570 h5         1 ZR4       0.043100
     33 H8         -28.4240   -28.6930   -41.1940 h1         1 ZR4       0.060700
     34 H9         -30.8000   -29.2160   -40.7900 h1         1 ZR4       0.064700
     35 H7         -27.5320   -31.0480   -39.9710 h1         1 ZR4       0.072700
     36 H6         -30.1380   -32.0340   -41.8610 h2         1 ZR4       0.125700
     37 H10        -28.5450   -30.4340   -37.8090 h1         1 ZR4       0.061700
     38 H5         -36.7520   -34.2380   -40.9600 hn         1 ZR4       0.492500
     39 H4         -36.1640   -33.3230   -39.6170 hn         1 ZR4       0.492500
     40 H15        -27.0700   -30.2010   -42.2930 ho         1 ZR4       0.503000
     41 H16        -29.7930   -29.8140   -43.3370 ho         1 ZR4       0.510000
     42 H14        -29.6770   -28.4360   -37.6520 ho         1 ZR4       0.516000
     43 N4         -36.1230   -33.5180   -40.6130 nv         1 ZR4      -1.072900
@<TRIPOS>BOND
     1     1     2 ar  
     2     1     8 ar  
     3     1    27 1   
     4     2    10 ar  
     5     2    28 1   
     6     3     5 2   
     7     3     7 1   
     8     3    29 1   
     9     4     8 ar  
    10     4     9 ar  
    11     4    30 1   
    12     5    20 1   
    13     5    31 1   
    14     6    18 ar  
    15     6    19 ar  
    16     6    32 1   
    17     7    11 ar  
    18     7    12 ar  
    19     8    17 1   
    20     9    10 ar  
    21     9    25 1   
    22    10    26 1   
    23    11    18 ar  
    24    11    20 1   
    25    12    19 ar  
    26    12    43 1   
    27    13    14 1   
    28    13    15 1   
    29    13    22 1   
    30    13    33 1   
    31    14    16 1   
    32    14    23 1   
    33    14    34 1   
    34    15    17 1   
    35    15    21 1   
    36    15    35 1   
    37    16    20 1   
    38    16    21 1   
    39    16    36 1   
    40    17    24 1   
    41    17    37 1   
    42    22    40 1   
    43    23    41 1   
    44    24    42 1   
    45    38    43 1   
    46    39    43 1   
@<TRIPOS>SUBSTRUCTURE
     1 ZR4         1 TEMP              0 ****  ****    0 ROOT
