@<TRIPOS>MOLECULE
ZR4
   43    46     1     0     0
SMALL
bcc


@<TRIPOS>ATOM
      1 C17        -26.1420   -29.4970   -38.0910 ca         1 ZR4      -0.133000
      2 C16        -24.9940   -28.7310   -37.9780 ca         1 ZR4      -0.093000
      3 C5         -33.7340   -31.5410   -39.5930 cc         1 ZR4      -0.164200
      4 C13        -27.3990   -27.5610   -38.7370 ca         1 ZR4      -0.155000
      5 C6         -32.4620   -31.0620   -39.6260 cd         1 ZR4      -0.114100
      6 C3         -33.2880   -34.0280   -42.7580 ca         1 ZR4       0.703900
      7 C1         -33.8370   -32.4830   -40.6610 ca         1 ZR4      -0.389400
      8 C12        -27.3520   -28.9240   -38.4720 ca         1 ZR4      -0.108300
      9 C14        -26.2510   -26.8050   -38.6210 ca         1 ZR4       0.145900
     10 C15        -25.0460   -27.3710   -38.2420 ca         1 ZR4      -0.020600
     11 C2         -32.5940   -32.5270   -41.2960 ca         1 ZR4       0.495800
     12 C4         -34.8250   -33.3240   -41.2090 ca         1 ZR4       0.756200
     13 C9         -28.6610   -29.8040   -41.2010 c5         1 ZR4       0.085100
     14 C10        -30.1510   -29.9660   -41.5010 c5         1 ZR4       0.114100
     15 C8         -28.5230   -30.6050   -39.8950 c5         1 ZR4       0.121100
     16 C7         -30.4000   -31.3940   -41.0210 c5         1 ZR4       0.262800
     17 C11        -28.5890   -29.7880   -38.6020 c3         1 ZR4       0.182400
     18 N1         -32.2800   -33.2860   -42.3470 nb         1 ZR4      -0.748000
     19 N2         -34.5210   -34.0900   -42.2600 nb         1 ZR4      -0.827000
     20 N3         -31.7640   -31.6580   -40.6570 na         1 ZR4      -0.161100
     21 O1         -29.5690   -31.5710   -39.9050 os         1 ZR4      -0.401600
     22 O3         -27.9420   -30.4010   -42.2510 oh         1 ZR4      -0.568800
     23 O4         -30.5380   -29.8540   -42.8360 oh         1 ZR4      -0.551800
     24 O2         -29.7740   -29.0420   -38.5960 oh         1 ZR4      -0.596800
     25 F1         -26.3010   -25.4950   -38.8770 f          1 ZR4      -0.122900
     26 CL1        -23.6460   -26.3790   -38.0940 cl         1 ZR4      -0.068400
     27 H13        -26.0910   -30.5560   -37.8690 ha         1 ZR4       0.144000
     28 H12        -24.0600   -29.1850   -37.6760 ha         1 ZR4       0.155000
     29 H2         -34.4980   -31.2550   -38.8870 ha         1 ZR4       0.148000
     30 H11        -28.3210   -27.0750   -39.0310 ha         1 ZR4       0.163000
     31 H3         -31.9820   -30.3400   -38.9850 h4         1 ZR4       0.173000
     32 H1         -33.0950   -34.6720   -43.6100 h5         1 ZR4       0.043100
     33 H8         -28.3790   -28.7530   -41.0730 h1         1 ZR4       0.060700
     34 H9         -30.7030   -29.2710   -40.8590 h1         1 ZR4       0.064700
     35 H7         -27.5620   -31.1330   -39.8890 h1         1 ZR4       0.072700
     36 H6         -30.1550   -32.1040   -41.8190 h2         1 ZR4       0.125700
     37 H10        -28.5780   -30.5100   -37.7730 h1         1 ZR4       0.061700
     38 H5         -36.7040   -34.0810   -41.0710 hn         1 ZR4       0.437300
     39 H4         -36.3130   -32.9320   -39.8580 hn         1 ZR4       0.437300
     40 H15        -27.0020   -30.3180   -42.0600 ho         1 ZR4       0.404000
     41 H16        -30.5470   -28.9230   -43.0780 ho         1 ZR4       0.411000
     42 H14        -29.9340   -28.7110   -37.7060 ho         1 ZR4       0.417000
     43 N4         -36.0770   -33.3720   -40.7300 nv         1 ZR4      -0.962500
@<TRIPOS>BOND
     1     1     2 ar  
     2     1     8 ar  
     3     1    27 1   
     4     2    10 ar  
     5     2    28 1   
     6     3     5 2   
     7     3     7 1   
     8     3    29 1   
     9     4     8 ar  
    10     4     9 ar  
    11     4    30 1   
    12     5    20 1   
    13     5    31 1   
    14     6    18 ar  
    15     6    19 ar  
    16     6    32 1   
    17     7    11 ar  
    18     7    12 ar  
    19     8    17 1   
    20     9    10 ar  
    21     9    25 1   
    22    10    26 1   
    23    11    18 ar  
    24    11    20 1   
    25    12    19 ar  
    26    12    43 1   
    27    13    14 1   
    28    13    15 1   
    29    13    22 1   
    30    13    33 1   
    31    14    16 1   
    32    14    23 1   
    33    14    34 1   
    34    15    17 1   
    35    15    21 1   
    36    15    35 1   
    37    16    20 1   
    38    16    21 1   
    39    16    36 1   
    40    17    24 1   
    41    17    37 1   
    42    22    40 1   
    43    23    41 1   
    44    24    42 1   
    45    38    43 1   
    46    39    43 1   
@<TRIPOS>SUBSTRUCTURE
     1 ZR4         1 TEMP              0 ****  ****    0 ROOT
