@<TRIPOS>MOLECULE
ZR5
   49    52     1     0     0
SMALL
abcg2


@<TRIPOS>ATOM
      1 N1         143.3480   127.7500   146.8450 nu         1 ZR5      -0.806300
      2 C7         149.0340   131.8490   144.0930 c3         1 ZR5       0.276100
      3 C8         147.6150   130.6140   145.6920 ca         1 ZR5       0.398000
      4 N2         141.7110   128.8960   145.6700 nc         1 ZR5      -0.594100
      5 C9         147.0870   130.5240   146.9970 ca         1 ZR5      -0.218500
      6 C1         152.0110   130.2060   142.3750 ca         1 ZR5       0.069100
      7 C5         150.2640   130.9930   143.8580 ca         1 ZR5      -0.206300
      8 C6         150.8750   130.9930   142.6000 ca         1 ZR5       0.132100
      9 C4         150.8200   130.2220   144.8730 ca         1 ZR5      -0.064000
     10 C3         151.9490   129.4490   144.6540 ca         1 ZR5      -0.132000
     11 O3         144.9750   126.1290   145.8900 o          1 ZR5      -0.525500
     12 C2         152.5450   129.4430   143.4010 ca         1 ZR5      -0.089000
     13 N          148.4000   131.6660   145.3660 nu         1 ZR5      -0.964200
     14 C          153.6600   131.0890   140.9790 c3         1 ZR5       0.148900
     15 C10        146.2780   129.4770   147.3620 ca         1 ZR5       0.046500
     16 C11        145.9650   128.4830   146.4320 ca         1 ZR5      -0.397500
     17 C12        146.4740   128.5520   145.1390 ca         1 ZR5       0.046500
     18 C13        147.2970   129.5980   144.7730 ca         1 ZR5      -0.218500
     19 C14        142.6500   128.0180   145.6930 cd         1 ZR5       0.599100
     20 C15        141.1070   128.9320   144.4360 ca         1 ZR5       0.119400
     21 C16        141.6380   128.0440   143.4890 ca         1 ZR5      -0.210000
     22 C17        141.1470   127.9750   142.1930 ca         1 ZR5      -0.066000
     23 C18        140.0950   128.8110   141.8520 ca         1 ZR5      -0.110000
     24 C19        139.5540   129.6980   142.7870 ca         1 ZR5      -0.107000
     25 C20        140.0510   129.7670   144.0760 ca         1 ZR5      -0.066000
     26 O2         145.1320   126.8640   148.3030 o          1 ZR5      -0.525500
     27 S          144.9230   127.1680   146.9030 sy         1 ZR5       1.186600
     28 S1         142.9270   127.1270   144.2090 ss         1 ZR5       0.091800
     29 H1         143.0830   128.3350   147.6330 hn         1 ZR5       0.513000
     30 H2         149.3020   132.9060   144.0220 h1         1 ZR5       0.054200
     31 H3         148.2950   131.6750   143.3020 h1         1 ZR5       0.054200
     32 H4         147.3260   131.2920   147.7230 ha         1 ZR5       0.121500
     33 H5         149.6600   132.2430   141.7680 ho         1 ZR5       0.460000
     34 H6         150.3600   130.2260   145.8530 ha         1 ZR5       0.118000
     35 H7         152.3630   128.8520   145.4550 ha         1 ZR5       0.123000
     36 H8         153.4230   128.8380   143.2080 ha         1 ZR5       0.129000
     37 H9         148.6420   132.3130   146.0980 hn         1 ZR5       0.497000
     38 H10        154.0090   131.0000   139.9520 h1         1 ZR5       0.034700
     39 H11        153.3660   132.1260   141.1610 h1         1 ZR5       0.034700
     40 H12        154.4850   130.8380   141.6520 h1         1 ZR5       0.034700
     41 H13        145.8940   129.4350   148.3730 ha         1 ZR5       0.134000
     42 H14        146.2520   127.7820   144.4130 ha         1 ZR5       0.134000
     43 H15        147.6990   129.6130   143.7700 ha         1 ZR5       0.121500
     44 H16        141.5650   127.2880   141.4690 ha         1 ZR5       0.124000
     45 H17        139.6900   128.7750   140.8500 ha         1 ZR5       0.115000
     46 H18        138.7340   130.3410   142.4970 ha         1 ZR5       0.116000
     47 H19        139.6350   130.4550   144.8000 ha         1 ZR5       0.130000
     48 O          152.5680   130.1950   141.1330 os         1 ZR5      -0.342100
     49 O1         150.4360   131.7180   141.5490 oh         1 ZR5      -0.520100
@<TRIPOS>BOND
     1     1    19 1   
     2     1    27 1   
     3     1    29 1   
     4     2     7 1   
     5     2    13 1   
     6     2    30 1   
     7     2    31 1   
     8     3     5 ar  
     9     3    13 1   
    10     3    18 ar  
    11     4    19 2   
    12     4    20 1   
    13     5    15 ar  
    14     5    32 1   
    15     6     8 ar  
    16     6    12 ar  
    17     6    48 1   
    18     7     8 ar  
    19     7     9 ar  
    20     8    49 1   
    21     9    10 ar  
    22     9    34 1   
    23    10    12 ar  
    24    10    35 1   
    25    11    27 2   
    26    12    36 1   
    27    13    37 1   
    28    14    38 1   
    29    14    39 1   
    30    14    40 1   
    31    14    48 1   
    32    15    16 ar  
    33    15    41 1   
    34    16    17 ar  
    35    16    27 1   
    36    17    18 ar  
    37    17    42 1   
    38    18    43 1   
    39    19    28 1   
    40    20    21 ar  
    41    20    25 ar  
    42    21    22 ar  
    43    21    28 1   
    44    22    23 ar  
    45    22    44 1   
    46    23    24 ar  
    47    23    45 1   
    48    24    25 ar  
    49    24    46 1   
    50    25    47 1   
    51    26    27 2   
    52    33    49 1   
@<TRIPOS>SUBSTRUCTURE
     1 ZR5         1 TEMP              0 ****  ****    0 ROOT
