@<TRIPOS>MOLECULE
ZR5
   49    52     1     0     0
SMALL
No Charge or Current Charge


@<TRIPOS>ATOM
      1 N1         144.1220   126.1270   145.3090 nu         1 ZR5      -0.806300
      2 C7         148.4160   132.0220   142.6070 c3         1 ZR5       0.276100
      3 C8         146.9380   130.3180   143.7680 ca         1 ZR5       0.398000
      4 N2         142.7370   127.7510   146.0250 nc         1 ZR5      -0.594100
      5 C9         146.8300   129.8770   145.0900 ca         1 ZR5      -0.218500
      6 C1         151.7100   130.3940   143.8330 ca         1 ZR5       0.069100
      7 C5         149.7640   131.7930   143.2830 ca         1 ZR5      -0.206300
      8 C6         150.4420   130.5520   143.2190 ca         1 ZR5       0.132100
      9 C4         150.3610   132.8660   143.9740 ca         1 ZR5      -0.064000
     10 C3         151.6130   132.7120   144.5880 ca         1 ZR5      -0.132000
     11 O3         145.4510   125.2450   143.4200 o          1 ZR5      -0.525500
     12 C2         152.2900   131.4840   144.5190 ca         1 ZR5      -0.089000
     13 N          147.3330   131.6240   143.5130 nu         1 ZR5      -0.964200
     14 C          153.6310   128.9130   144.3450 c3         1 ZR5       0.148900
     15 C10        146.4450   128.5560   145.3660 ca         1 ZR5       0.046500
     16 C11        146.1570   127.6770   144.3040 ca         1 ZR5      -0.397500
     17 C12        146.2640   128.1210   142.9710 ca         1 ZR5       0.046500
     18 C13        146.6540   129.4440   142.7110 ca         1 ZR5      -0.218500
     19 C14        143.3050   127.1400   144.9890 cd         1 ZR5       0.599100
     20 C15        141.9150   128.7350   145.4800 ca         1 ZR5       0.119400
     21 C16        141.8650   128.8290   144.0980 ca         1 ZR5      -0.210000
     22 C17        141.0730   129.7820   143.4390 ca         1 ZR5      -0.066000
     23 C18        140.3060   130.6700   144.2160 ca         1 ZR5      -0.110000
     24 C19        140.3430   130.5890   145.6230 ca         1 ZR5      -0.107000
     25 C20        141.1480   129.6200   146.2570 ca         1 ZR5      -0.066000
     26 O2         146.4180   125.4780   145.7870 o          1 ZR5      -0.525500
     27 S          145.6420   125.9980   144.6610 sy         1 ZR5       1.186600
     28 S1         142.8850   127.6310   143.3220 ss         1 ZR5       0.091800
     29 H1         144.2700   126.0870   146.3020 hn         1 ZR5       0.513000
     30 H2         148.3180   133.0910   142.3700 h1         1 ZR5       0.054200
     31 H3         148.3580   131.4830   141.6510 h1         1 ZR5       0.054200
     32 H4         147.0530   130.5530   145.9100 ha         1 ZR5       0.121500
     33 H5         148.9100   129.6850   142.4830 ho         1 ZR5       0.460000
     34 H6         149.8550   133.8280   144.0340 ha         1 ZR5       0.118000
     35 H7         152.0630   133.5490   145.1180 ha         1 ZR5       0.123000
     36 H8         153.2590   131.3990   145.0040 ha         1 ZR5       0.129000
     37 H9         147.2510   132.2230   144.3350 hn         1 ZR5       0.497000
     38 H10        153.9440   127.8790   144.1550 h1         1 ZR5       0.034700
     39 H11        154.3940   129.5810   143.9240 h1         1 ZR5       0.034700
     40 H12        153.5920   129.0620   145.4320 h1         1 ZR5       0.034700
     41 H13        146.3670   128.2250   146.4020 ha         1 ZR5       0.134000
     42 H14        146.0410   127.4550   142.1380 ha         1 ZR5       0.134000
     43 H15        146.7130   129.7910   141.6830 ha         1 ZR5       0.121500
     44 H16        141.0510   129.8360   142.3530 ha         1 ZR5       0.124000
     45 H17        139.6850   131.4190   143.7300 ha         1 ZR5       0.115000
     46 H18        139.7500   131.2760   146.2230 ha         1 ZR5       0.116000
     47 H19        141.1770   129.5570   147.3420 ha         1 ZR5       0.130000
     48 O          152.3460   129.1630   143.7480 os         1 ZR5      -0.342100
     49 O1         149.8660   129.4960   142.5670 oh         1 ZR5      -0.520100
@<TRIPOS>BOND
     1     1    19 1   
     2     1    27 1   
     3     1    29 1   
     4     2     7 1   
     5     2    13 1   
     6     2    30 1   
     7     2    31 1   
     8     3     5 ar  
     9     3    13 1   
    10     3    18 ar  
    11     4    19 2   
    12     4    20 1   
    13     5    15 ar  
    14     5    32 1   
    15     6     8 ar  
    16     6    12 ar  
    17     6    48 1   
    18     7     8 ar  
    19     7     9 ar  
    20     8    49 1   
    21     9    10 ar  
    22     9    34 1   
    23    10    12 ar  
    24    10    35 1   
    25    11    27 2   
    26    12    36 1   
    27    13    37 1   
    28    14    38 1   
    29    14    39 1   
    30    14    40 1   
    31    14    48 1   
    32    15    16 ar  
    33    15    41 1   
    34    16    17 ar  
    35    16    27 1   
    36    17    18 ar  
    37    17    42 1   
    38    18    43 1   
    39    19    28 1   
    40    20    21 ar  
    41    20    25 ar  
    42    21    22 ar  
    43    21    28 1   
    44    22    23 ar  
    45    22    44 1   
    46    23    24 ar  
    47    23    45 1   
    48    24    25 ar  
    49    24    46 1   
    50    25    47 1   
    51    26    27 2   
    52    33    49 1   
@<TRIPOS>SUBSTRUCTURE
     1 ZR5         1 TEMP              0 ****  ****    0 ROOT
