@<TRIPOS>MOLECULE
ZR6
   27    28     1     0     0
SMALL
No Charge or Current Charge


@<TRIPOS>ATOM
      1 C01         19.9120   166.6310    25.8450 c3         1 ZR6      -0.033800
      2 C02         20.3680   167.9890    25.2980 ca         1 ZR6      -0.034300
      3 C03         21.6120   168.5550    25.6990 ca         1 ZR6      -0.078000
      4 C04         22.0070   169.7950    25.1550 ca         1 ZR6      -0.132000
      5 C05         21.2480   170.4190    24.1580 ca         1 ZR6      -0.144000
      6 C06         20.0500   169.8390    23.7260 ca         1 ZR6      -0.086000
      7 C07         19.5930   168.6340    24.2960 ca         1 ZR6      -0.120600
      8 C08         18.2780   168.0680    23.8120 c          1 ZR6       0.714600
      9 C12         23.8150   167.9620    26.8540 c5         1 ZR6       0.097000
     10 C13         24.1090   167.3500    28.2690 c5         1 ZR6       0.066000
     11 C15         21.8230   167.8830    28.1220 c          1 ZR6       0.591000
     12 N11         22.3440   168.0730    26.8450 n          1 ZR6      -0.245400
     13 N14         22.8250   167.4980    28.9550 ns         1 ZR6      -0.499900
     14 O09         17.3710   167.9240    24.6200 o          1 ZR6      -0.715500
     15 O10         18.1550   167.8480    22.6150 o          1 ZR6      -0.715500
     16 H1          19.4960   166.0000    25.0510 hc         1 ZR6       0.041033
     17 H2          20.7380   166.0590    26.2840 hc         1 ZR6       0.041033
     18 H3          19.1400   166.7520    26.6130 hc         1 ZR6       0.041033
     19 H4          22.9110   170.2860    25.5080 ha         1 ZR6       0.089000
     20 H5          21.5780   171.3640    23.7340 ha         1 ZR6       0.088000
     21 H6          19.4600   170.3340    22.9570 ha         1 ZR6       0.122000
     22 H7          24.1790   167.3170    26.0450 h1         1 ZR6       0.048200
     23 H8          24.3930   166.2930    28.1890 h1         1 ZR6       0.034700
     24 H9          22.6280   167.3200    29.9330 hn         1 ZR6       0.305500
     25 H11         24.2840   168.9490    26.7510 h1         1 ZR6       0.048200
     26 H12         24.9200   167.8850    28.7810 h1         1 ZR6       0.034700
     27 O16         20.6700   168.0610    28.4810 o          1 ZR6      -0.559000
@<TRIPOS>BOND
     1     1     2 1   
     2     1    16 1   
     3     1    17 1   
     4     1    18 1   
     5     2     3 ar  
     6     2     7 ar  
     7     3     4 ar  
     8     3    12 1   
     9     4     5 ar  
    10     4    19 1   
    11     5     6 ar  
    12     5    20 1   
    13     6     7 ar  
    14     6    21 1   
    15     7     8 1   
    16     8    14 1   
    17     8    15 1   
    18     9    10 1   
    19     9    12 1   
    20     9    22 1   
    21     9    25 1   
    22    10    13 1   
    23    10    23 1   
    24    10    26 1   
    25    11    12 1   
    26    11    13 1   
    27    11    27 2   
    28    13    24 1   
@<TRIPOS>SUBSTRUCTURE
     1 ZR6         1 TEMP              0 ****  ****    0 ROOT
