@<TRIPOS>MOLECULE
ZR6
   27    28     1     0     0
SMALL
abcg2


@<TRIPOS>ATOM
      1 C01         20.1100   166.6920    25.8960 c3         1 ZR6      -0.033800
      2 C02         20.4320   168.0540    25.3470 ca         1 ZR6      -0.034300
      3 C03         21.5130   168.7790    25.8670 ca         1 ZR6      -0.078000
      4 C04         21.8720   170.0170    25.3460 ca         1 ZR6      -0.132000
      5 C05         21.1630   170.5530    24.2850 ca         1 ZR6      -0.144000
      6 C06         20.0900   169.8480    23.7630 ca         1 ZR6      -0.086000
      7 C07         19.6980   168.6200    24.2930 ca         1 ZR6      -0.120600
      8 C08         18.4520   167.9640    23.7000 c          1 ZR6       0.714600
      9 C12         23.5590   167.5880    26.7150 c5         1 ZR6       0.097000
     10 C13         24.0190   167.3330    28.1520 c5         1 ZR6       0.066000
     11 C15         21.8140   168.0540    28.1890 c          1 ZR6       0.591000
     12 N11         22.2970   168.2720    26.9280 n          1 ZR6      -0.245400
     13 N14         22.7560   167.3260    28.8650 ns         1 ZR6      -0.499900
     14 O09         17.6420   167.4770    24.5110 o          1 ZR6      -0.715500
     15 O10         18.3440   168.0150    22.4610 o          1 ZR6      -0.715500
     16 H1          19.7610   166.0200    25.1160 hc         1 ZR6       0.041033
     17 H2          20.9820   166.2320    26.3570 hc         1 ZR6       0.041033
     18 H3          19.3270   166.7420    26.6520 hc         1 ZR6       0.041033
     19 H4          22.7090   170.5510    25.7780 ha         1 ZR6       0.089000
     20 H5          21.4420   171.5140    23.8720 ha         1 ZR6       0.088000
     21 H6          19.5350   170.2620    22.9320 ha         1 ZR6       0.122000
     22 H7          23.4110   166.6510    26.1670 h1         1 ZR6       0.048200
     23 H8          24.5490   166.3870    28.2500 h1         1 ZR6       0.034700
     24 H9          22.7510   167.3690    29.8720 hn         1 ZR6       0.305500
     25 H11         24.2630   168.2030    26.1570 h1         1 ZR6       0.048200
     26 H12         24.6770   168.1340    28.5020 h1         1 ZR6       0.034700
     27 O16         20.7400   168.4310    28.6210 o          1 ZR6      -0.559000
@<TRIPOS>BOND
     1     1     2 1   
     2     1    16 1   
     3     1    17 1   
     4     1    18 1   
     5     2     3 ar  
     6     2     7 ar  
     7     3     4 ar  
     8     3    12 1   
     9     4     5 ar  
    10     4    19 1   
    11     5     6 ar  
    12     5    20 1   
    13     6     7 ar  
    14     6    21 1   
    15     7     8 1   
    16     8    14 1   
    17     8    15 1   
    18     9    10 1   
    19     9    12 1   
    20     9    22 1   
    21     9    25 1   
    22    10    13 1   
    23    10    23 1   
    24    10    26 1   
    25    11    12 1   
    26    11    13 1   
    27    11    27 2   
    28    13    24 1   
@<TRIPOS>SUBSTRUCTURE
     1 ZR6         1 TEMP              0 ****  ****    0 ROOT
