@<TRIPOS>MOLECULE
ZR9
   20    21     1     0     0
SMALL
No Charge or Current Charge


@<TRIPOS>ATOM
      1 C12         21.9880   170.1850    26.9760 c          1 ZR9       0.600600
      2 C14         21.8720   170.8160    23.2410 ca         1 ZR9      -0.204000
      3 C15         20.9440   169.8540    22.8040 ca         1 ZR9      -0.020000
      4 C04         20.3340   168.9730    23.7270 ca         1 ZR9      -0.171600
      5 C05         20.6730   169.0770    25.0970 ca         1 ZR9       0.002000
      6 C06         21.6030   170.0440    25.5310 ca         1 ZR9      -0.236600
      7 C07         22.1930   170.9030    24.6000 ca         1 ZR9       0.078600
      8 C09         23.4960   172.0170    26.3750 c          1 ZR9       0.623000
      9 N08         23.1100   171.8450    25.0810 ns         1 ZR9      -0.509600
     10 N11         22.9000   171.1640    27.2490 ns         1 ZR9      -0.477500
     11 O01         19.0670   167.8760    22.0670 o          1 ZR9      -0.711500
     12 O03         18.8310   167.1930    24.0910 o          1 ZR9      -0.711500
     13 O10         24.3010   172.8610    26.7160 o          1 ZR9      -0.600000
     14 O13         21.5290   169.4830    27.8620 o          1 ZR9      -0.540000
     15 H1          22.3340   171.4870    22.5210 ha         1 ZR9       0.098000
     16 H2          20.7030   169.7970    21.7440 ha         1 ZR9       0.135000
     17 H3          20.2150   168.4090    25.8250 ha         1 ZR9       0.155000
     18 H4          23.5420   172.4710    24.4110 hn         1 ZR9       0.446000
     19 H5          23.1650   171.2660    28.2150 hn         1 ZR9       0.326500
     20 C02         19.3340   167.9350    23.2590 c          1 ZR9       0.718600
@<TRIPOS>BOND
     1     1     6 1   
     2     1    10 1   
     3     1    14 2   
     4     2     3 ar  
     5     2     7 ar  
     6     2    15 1   
     7     3     4 ar  
     8     3    16 1   
     9     4     5 ar  
    10     4    20 1   
    11     5     6 ar  
    12     5    17 1   
    13     6     7 ar  
    14     7     9 1   
    15     8     9 1   
    16     8    10 1   
    17     8    13 2   
    18     9    18 1   
    19    10    19 1   
    20    11    20 1   
    21    12    20 1   
@<TRIPOS>SUBSTRUCTURE
     1 ZR9         1 TEMP              0 ****  ****    0 ROOT
