@<TRIPOS>MOLECULE
ZR9
   20    21     1     0     0
SMALL
abcg2


@<TRIPOS>ATOM
      1 C12         21.9530   170.1580    26.9440 c          1 ZR9       0.600600
      2 C14         21.8760   170.8070    23.2560 ca         1 ZR9      -0.204000
      3 C15         20.9600   169.8590    22.8480 ca         1 ZR9      -0.020000
      4 C04         20.3510   168.9820    23.7530 ca         1 ZR9      -0.171600
      5 C05         20.6900   169.0900    25.0890 ca         1 ZR9       0.002000
      6 C06         21.6070   170.0440    25.5270 ca         1 ZR9      -0.236600
      7 C07         22.2050   170.9070    24.6080 ca         1 ZR9       0.078600
      8 C09         23.4830   172.0110    26.3450 c          1 ZR9       0.623000
      9 N08         23.1120   171.8460    25.0470 ns         1 ZR9      -0.509600
     10 N11         22.8740   171.1440    27.2280 ns         1 ZR9      -0.477500
     11 O01         19.0660   167.9610    22.0620 o          1 ZR9      -0.711500
     12 O03         18.8840   167.1750    24.1440 o          1 ZR9      -0.711500
     13 O10         24.2840   172.8450    26.7110 o          1 ZR9      -0.600000
     14 O13         21.4930   169.4660    27.8300 o          1 ZR9      -0.540000
     15 H1          22.3370   171.4740    22.5380 ha         1 ZR9       0.098000
     16 H2          20.7070   169.7900    21.7990 ha         1 ZR9       0.135000
     17 H3          20.2360   168.4270    25.8120 ha         1 ZR9       0.155000
     18 H4          23.5370   172.4720    24.3760 hn         1 ZR9       0.446000
     19 H5          23.1390   171.2550    28.1990 hn         1 ZR9       0.326500
     20 C02         19.3400   167.9430    23.2760 c          1 ZR9       0.718600
@<TRIPOS>BOND
     1     1     6 1   
     2     1    10 1   
     3     1    14 2   
     4     2     3 ar  
     5     2     7 ar  
     6     2    15 1   
     7     3     4 ar  
     8     3    16 1   
     9     4     5 ar  
    10     4    20 1   
    11     5     6 ar  
    12     5    17 1   
    13     6     7 ar  
    14     7     9 1   
    15     8     9 1   
    16     8    10 1   
    17     8    13 2   
    18     9    18 1   
    19    10    19 1   
    20    11    20 1   
    21    12    20 1   
@<TRIPOS>SUBSTRUCTURE
     1 ZR9         1 TEMP              0 ****  ****    0 ROOT
