@<TRIPOS>MOLECULE
ZRA
   56    56     1     0     0
SMALL
bcc


@<TRIPOS>ATOM
      1 C1           1.5430    -0.9120     0.6950 c          1 ZRA       0.758100
      2 O1           1.1540    -1.7480     1.4860 o          1 ZRA      -0.599000
      3 O2           2.8040    -0.8000     0.2730 os         1 ZRA      -0.428900
      4 C2           3.7510    -1.7430     0.7930 c3         1 ZRA       0.208700
      5 C3           5.0930    -1.3540     0.2520 ca         1 ZRA      -0.102300
      6 C4           5.8660    -0.4010     0.9100 ca         1 ZRA      -0.101500
      7 C5           7.0980    -0.0180     0.3990 ca         1 ZRA      -0.134500
      8 C6           7.5690    -0.5850    -0.7790 ca         1 ZRA      -0.116000
      9 C7           6.8040    -1.5360    -1.4410 ca         1 ZRA      -0.134500
     10 C8           5.5720    -1.9160    -0.9270 ca         1 ZRA      -0.101500
     11 CA1         -0.6630     0.0190     0.3650 c3         1 ZRA       0.056700
     12 CB1         -1.3150     1.2160    -0.3280 c3         1 ZRA      -0.089400
     13 CG          -0.8160     2.5610     0.1850 c3         1 ZRA      -0.081400
     14 CD          -1.5440     3.7220    -0.4760 c3         1 ZRA       0.174800
     15 NE          -1.0280     4.9880     0.0040 n7         1 ZRA      -0.821200
     16 CZ          -1.5540     6.1520    -0.6610 c3         1 ZRA       0.619900
     17 NH1         -2.9910     6.2930    -0.5270 n8         1 ZRA      -0.931800
     18 NH2         -0.8520     7.2980    -0.1080 n8         1 ZRA      -0.931800
     19 C           -1.2760    -1.2710    -0.1840 c          1 ZRA       0.656100
     20 N1           0.7580     0.0350     0.1460 ns         1 ZRA      -0.549900
     21 O           -0.8290    -1.8230    -1.1750 o          1 ZRA      -0.598100
     22 N2          -2.3700    -1.6890     0.4710 ns         1 ZRA      -0.562900
     23 CA2         -3.1170    -2.8530     0.0720 c3         1 ZRA       0.011700
     24 CT          -4.5650    -2.6920     0.4900 c          1 ZRA       0.530100
     25 OT          -4.9050    -1.9750     1.3960 o          1 ZRA      -0.486100
     26 CB2         -2.5480    -4.1410     0.6800 c3         1 ZRA      -0.110100
     27 CM          -5.5500    -3.5020    -0.3100 c3         1 ZRA       0.067900
     28 F1          -6.7980    -3.4460     0.2620 f          1 ZRA      -0.220300
     29 H21          3.4820    -2.7540     0.4790 h1         1 ZRA       0.056700
     30 H22          3.7490    -1.7140     1.8840 h1         1 ZRA       0.056700
     31 H4           5.5060     0.0420     1.8310 ha         1 ZRA       0.133500
     32 H5           7.6910     0.7220     0.9200 ha         1 ZRA       0.132000
     33 H6           8.5310    -0.2890    -1.1760 ha         1 ZRA       0.131000
     34 H7           7.1670    -1.9840    -2.3570 ha         1 ZRA       0.132000
     35 H8           4.9780    -2.6590    -1.4460 ha         1 ZRA       0.133500
     36 HA1         -0.8660     0.0920     1.4390 h1         1 ZRA       0.075700
     37 HB11        -1.1490     1.1410    -1.4080 hc         1 ZRA       0.058200
     38 HB12        -2.3950     1.1470    -0.1760 hc         1 ZRA       0.058200
     39 HG1         -0.9560     2.6100     1.2700 hc         1 ZRA       0.051200
     40 HG2          0.2560     2.6680     0.0030 hc         1 ZRA       0.051200
     41 HD1         -1.3840     3.6780    -1.5590 h1         1 ZRA       0.037700
     42 HD2         -2.6260     3.6130    -0.3240 h1         1 ZRA       0.037700
     43 HE          -1.1910     5.0750     1.0020 hn         1 ZRA       0.369800
     44 HZ          -1.3680     6.0110    -1.7360 h3         1 ZRA       0.040700
     45 HH11        -3.2110     6.6050     0.4130 hn         1 ZRA       0.351550
     46 HH12        -3.3300     7.0150    -1.1520 hn         1 ZRA       0.351550
     47 HH21         0.1400     7.2090    -0.2890 hn         1 ZRA       0.351550
     48 HH22        -1.1550     8.1410    -0.5800 hn         1 ZRA       0.351550
     49 HN1          1.1310     0.6100    -0.5930 hn         1 ZRA       0.338500
     50 HN2         -2.6400    -1.2320     1.3290 hn         1 ZRA       0.334500
     51 HA2         -3.0750    -2.9370    -1.0170 h1         1 ZRA       0.087700
     52 HB21        -2.6040    -4.1170     1.7680 hc         1 ZRA       0.053033
     53 HB22        -3.0810    -5.0240     0.3260 hc         1 ZRA       0.053033
     54 HB23        -1.5040    -4.2460     0.3900 hc         1 ZRA       0.053033
     55 HM1         -5.5930    -3.0910    -1.3240 h1         1 ZRA       0.066200
     56 HM2         -5.2290    -4.5440    -0.3890 h1         1 ZRA       0.066200
@<TRIPOS>BOND
     1     1     2 2   
     2     1     3 1   
     3     1    20 1   
     4     3     4 1   
     5     4     5 1   
     6     4    29 1   
     7     4    30 1   
     8     5     6 ar  
     9     5    10 ar  
    10     6     7 ar  
    11     6    31 1   
    12     7     8 ar  
    13     7    32 1   
    14     8     9 ar  
    15     8    33 1   
    16     9    10 ar  
    17     9    34 1   
    18    10    35 1   
    19    11    12 1   
    20    11    19 1   
    21    11    20 1   
    22    11    36 1   
    23    12    13 1   
    24    12    37 1   
    25    12    38 1   
    26    13    14 1   
    27    13    39 1   
    28    13    40 1   
    29    14    15 1   
    30    14    41 1   
    31    14    42 1   
    32    15    16 1   
    33    15    43 1   
    34    16    17 1   
    35    16    18 1   
    36    16    44 1   
    37    17    45 1   
    38    17    46 1   
    39    18    47 1   
    40    18    48 1   
    41    19    21 2   
    42    19    22 1   
    43    20    49 1   
    44    22    23 1   
    45    22    50 1   
    46    23    24 1   
    47    23    26 1   
    48    23    51 1   
    49    24    25 2   
    50    24    27 1   
    51    26    52 1   
    52    26    53 1   
    53    26    54 1   
    54    27    28 1   
    55    27    55 1   
    56    27    56 1   
@<TRIPOS>SUBSTRUCTURE
     1 ZRA         1 TEMP              0 ****  ****    0 ROOT
