@<TRIPOS>MOLECULE
ZRA
   56    56     1     0     0
SMALL
No Charge or Current Charge


@<TRIPOS>ATOM
      1 C1           1.7000    -0.1070     0.8810 c          1 ZRA       0.642100
      2 O1           1.4840     0.3540     1.9900 o          1 ZRA      -0.550000
      3 O2           2.9250    -0.3410     0.3400 os         1 ZRA      -0.452100
      4 C2           4.0740    -0.0020     1.1320 c3         1 ZRA       0.231900
      5 C3           5.3250    -0.3430     0.3330 ca         1 ZRA      -0.102300
      6 C4           5.9020     0.6130    -0.5270 ca         1 ZRA      -0.083500
      7 C5           7.0570     0.2990    -1.2640 ca         1 ZRA      -0.116500
      8 C6           7.6430    -0.9730    -1.1460 ca         1 ZRA      -0.098000
      9 C7           7.0710    -1.9310    -0.2920 ca         1 ZRA      -0.116500
     10 C8           5.9160    -1.6180     0.4450 ca         1 ZRA      -0.083500
     11 CA1         -0.7180    -0.4180     0.2110 c3         1 ZRA       0.056700
     12 CB1         -1.3120     0.8900    -0.3830 c3         1 ZRA      -0.089400
     13 CG          -0.7520     2.1960     0.2310 c3         1 ZRA      -0.081400
     14 CD          -1.4340     3.4610    -0.3280 c3         1 ZRA       0.174800
     15 NE          -0.8550     4.6650     0.2920 n7         1 ZRA      -0.876400
     16 CZ          -1.4810     5.8270    -0.0250 c3         1 ZRA       0.619900
     17 NH1         -2.0950     6.1300     1.1380 n8         1 ZRA      -1.042200
     18 NH2         -0.4700     6.7060     0.0970 n8         1 ZRA      -1.042200
     19 C           -1.4180    -1.6790    -0.3790 c          1 ZRA       0.589100
     20 N1           0.7430    -0.4980    -0.0110 ns         1 ZRA      -0.482900
     21 O           -0.8640    -2.4570    -1.1460 o          1 ZRA      -0.598100
     22 N2          -2.7260    -1.8660     0.0230 ns         1 ZRA      -0.495900
     23 CA2         -3.5920    -2.9970    -0.3870 c3         1 ZRA       0.011700
     24 CT          -5.0960    -2.6260    -0.2300 c          1 ZRA       0.530100
     25 OT          -5.4550    -1.6190     0.3790 o          1 ZRA      -0.486100
     26 CB2         -3.2210    -4.2870     0.3820 c3         1 ZRA      -0.110100
     27 CM          -6.1000    -3.5890    -0.8980 c3         1 ZRA       0.086600
     28 F1          -7.3390    -3.0470    -1.0520 f          1 ZRA      -0.239000
     29 H21          4.0770    -0.5640     2.0760 h1         1 ZRA       0.056700
     30 H22          4.0760     1.0690     1.3770 h1         1 ZRA       0.056700
     31 H4           5.4530     1.6000    -0.6260 ha         1 ZRA       0.115500
     32 H5           7.4980     1.0410    -1.9260 ha         1 ZRA       0.114000
     33 H6           8.5370    -1.2160    -1.7170 ha         1 ZRA       0.113000
     34 H7           7.5220    -2.9170    -0.2010 ha         1 ZRA       0.114000
     35 H8           5.4780    -2.3660     1.1020 ha         1 ZRA       0.115500
     36 HA1         -0.9100    -0.4320     1.2920 h1         1 ZRA       0.075700
     37 HB11        -1.1400     0.9000    -1.4670 hc         1 ZRA       0.058200
     38 HB12        -2.4000     0.8820    -0.2420 hc         1 ZRA       0.058200
     39 HG1         -0.8810     2.1670     1.3200 hc         1 ZRA       0.051200
     40 HG2          0.3250     2.2620     0.0330 hc         1 ZRA       0.051200
     41 HD1         -1.2990     3.4900    -1.4180 h1         1 ZRA       0.037700
     42 HD2         -2.5130     3.4030    -0.1250 h1         1 ZRA       0.037700
     43 HE          -1.0860     4.6260     1.2840 hn         1 ZRA       0.425000
     44 HZ          -2.0920     5.9130    -0.9370 h3         1 ZRA       0.040700
     45 HH11        -1.4550     6.8220     1.5250 hn         1 ZRA       0.406750
     46 HH12        -2.9030     6.6980     0.8810 hn         1 ZRA       0.406750
     47 HH21         0.2700     6.0910     0.4340 hn         1 ZRA       0.406750
     48 HH22        -0.1700     6.9110    -0.8560 hn         1 ZRA       0.406750
     49 HN1          1.0830    -0.9060    -0.8730 hn         1 ZRA       0.338500
     50 HN2         -3.1160    -1.1690     0.6510 hn         1 ZRA       0.334500
     51 HA2         -3.4290    -3.1780    -1.4590 h1         1 ZRA       0.087700
     52 HB21        -3.3980    -4.1620     1.4570 hc         1 ZRA       0.053033
     53 HB22        -3.8160    -5.1400     0.0320 hc         1 ZRA       0.053033
     54 HB23        -2.1640    -4.5380     0.2360 hc         1 ZRA       0.053033
     55 HM1         -5.7140    -3.8690    -1.8860 h1         1 ZRA       0.066200
     56 HM2         -6.1800    -4.4930    -0.2830 h1         1 ZRA       0.066200
@<TRIPOS>BOND
     1     1     2 2   
     2     1     3 1   
     3     1    20 1   
     4     3     4 1   
     5     4     5 1   
     6     4    29 1   
     7     4    30 1   
     8     5     6 ar  
     9     5    10 ar  
    10     6     7 ar  
    11     6    31 1   
    12     7     8 ar  
    13     7    32 1   
    14     8     9 ar  
    15     8    33 1   
    16     9    10 ar  
    17     9    34 1   
    18    10    35 1   
    19    11    12 1   
    20    11    19 1   
    21    11    20 1   
    22    11    36 1   
    23    12    13 1   
    24    12    37 1   
    25    12    38 1   
    26    13    14 1   
    27    13    39 1   
    28    13    40 1   
    29    14    15 1   
    30    14    41 1   
    31    14    42 1   
    32    15    16 1   
    33    15    43 1   
    34    16    17 1   
    35    16    18 1   
    36    16    44 1   
    37    17    45 1   
    38    17    46 1   
    39    18    47 1   
    40    18    48 1   
    41    19    21 2   
    42    19    22 1   
    43    20    49 1   
    44    22    23 1   
    45    22    50 1   
    46    23    24 1   
    47    23    26 1   
    48    23    51 1   
    49    24    25 2   
    50    24    27 1   
    51    26    52 1   
    52    26    53 1   
    53    26    54 1   
    54    27    28 1   
    55    27    55 1   
    56    27    56 1   
@<TRIPOS>SUBSTRUCTURE
     1 ZRA         1 TEMP              0 ****  ****    0 ROOT
