@<TRIPOS>MOLECULE
ZRD
   35    38     1     0     0
SMALL
No Charge or Current Charge


@<TRIPOS>ATOM
      1 C7          21.7410    55.5540    87.8750 c5         1 ZRD       0.238500
      2 C6          22.5450    55.1150    90.0790 c2         1 ZRD       0.711100
      3 C1          15.8460    55.8260    88.8160 ca         1 ZRD       0.127400
      4 N1          19.3390    55.7970    88.0220 nh         1 ZRD      -0.776300
      5 C5          22.4010    57.7470    89.0800 c6         1 ZRD       0.073600
      6 C4          21.3340    57.0000    88.2820 c5         1 ZRD      -0.118700
      7 C3          19.9440    56.7950    88.9480 c5         1 ZRD       0.241800
      8 C2          17.9650    55.4790    87.9860 ca         1 ZRD       0.387900
      9 C           15.3460    54.8720    87.9130 ca         1 ZRD      -0.018000
     10 C12         16.2600    54.2470    87.0500 ca         1 ZRD       0.127400
     11 N5          17.5740    54.5500    87.0840 nb         1 ZRD      -0.227500
     12 N           17.1590    56.1310    88.8540 nb         1 ZRD      -0.227500
     13 C11         20.3870    55.0890    87.2110 c5         1 ZRD       0.250800
     14 N3          22.0030    54.6160    89.0350 n2         1 ZRD      -0.698900
     15 N2          22.8580    54.3180    91.1150 nv         1 ZRD      -1.017200
     16 S           22.9100    56.7910    90.5480 ss         1 ZRD      -0.384200
     17 C8          22.9020    55.5360    86.8880 cc         1 ZRD      -0.214300
     18 S1          22.9180    56.3870    85.3470 ss         1 ZRD       0.300100
     19 N4          24.4720    55.8700    84.9440 nc         1 ZRD      -0.494100
     20 C10         24.9450    55.1040    85.9130 cd         1 ZRD       0.285900
     21 C9          24.1010    54.8860    87.0300 cd         1 ZRD      -0.167000
     22 H1          15.1930    56.3490    89.5130 h4         1 ZRD       0.036600
     23 H2          23.2930    57.8940    88.4540 h1         1 ZRD       0.083200
     24 H3          22.0430    58.7360    89.4010 h1         1 ZRD       0.083200
     25 H4          21.1940    57.6180    87.3870 hc         1 ZRD       0.078700
     26 H5          19.3790    57.7380    88.9850 h1         1 ZRD       0.069200
     27 H6          20.0220    56.3980    89.9700 h1         1 ZRD       0.069200
     28 H7          15.9420    53.4990    86.3250 h4         1 ZRD       0.036600
     29 H8          20.3300    55.4000    86.1590 h1         1 ZRD       0.074700
     30 H9          20.2840    53.9960    87.2430 h1         1 ZRD       0.074700
     31 H10         22.9620    53.3540    90.8270 hn         1 ZRD       0.479500
     32 H11         23.6060    54.6810    91.6890 hn         1 ZRD       0.479500
     33 H12         25.9410    54.6990    85.7870 h4         1 ZRD       0.049100
     34 H13         24.3860    54.2770    87.8800 ha         1 ZRD       0.154000
     35 F           14.0290    54.5670    87.8770 f          1 ZRD      -0.167000
@<TRIPOS>BOND
     1     1     6 1   
     2     1    13 1   
     3     1    14 1   
     4     1    17 1   
     5     2    14 2   
     6     2    15 1   
     7     2    16 1   
     8     3     9 ar  
     9     3    12 ar  
    10     3    22 1   
    11     4     7 1   
    12     4     8 1   
    13     4    13 1   
    14     5     6 1   
    15     5    16 1   
    16     5    23 1   
    17     5    24 1   
    18     6     7 1   
    19     6    25 1   
    20     7    26 1   
    21     7    27 1   
    22     8    11 ar  
    23     8    12 ar  
    24     9    10 ar  
    25     9    35 1   
    26    10    11 ar  
    27    10    28 1   
    28    13    29 1   
    29    13    30 1   
    30    15    31 1   
    31    15    32 1   
    32    17    18 1   
    33    17    21 2   
    34    18    19 1   
    35    19    20 2   
    36    20    21 1   
    37    20    33 1   
    38    21    34 1   
@<TRIPOS>SUBSTRUCTURE
     1 ZRD         1 TEMP              0 ****  ****    0 ROOT
