@<TRIPOS>MOLECULE
ZRD
   35    38     1     0     0
SMALL
abcg2


@<TRIPOS>ATOM
      1 C7          21.7150    55.5970    87.7750 c5         1 ZRD       0.238500
      2 C6          22.3050    55.0400    90.0340 c2         1 ZRD       0.711100
      3 C1          16.0600    55.8030    88.9240 ca         1 ZRD       0.127400
      4 N1          19.4120    55.8440    87.9660 nh         1 ZRD      -0.776300
      5 C5          22.4190    57.6410    89.1350 c6         1 ZRD       0.073600
      6 C4          21.3960    57.0460    88.1960 c5         1 ZRD      -0.118700
      7 C3          19.9620    56.9610    88.7120 c5         1 ZRD       0.241800
      8 C2          18.1160    55.4920    88.0140 ca         1 ZRD       0.387900
      9 C           15.5690    54.7760    88.1440 ca         1 ZRD      -0.018000
     10 C12         16.4430    54.1450    87.2820 ca         1 ZRD       0.127400
     11 N5          17.7120    54.5010    87.2090 nb         1 ZRD      -0.227500
     12 N           17.3290    56.1640    88.8650 nb         1 ZRD      -0.227500
     13 C11         20.3860    55.1940    87.1190 c5         1 ZRD       0.250800
     14 N3          21.9540    54.6880    88.8650 n2         1 ZRD      -0.698900
     15 N2          22.4250    54.1160    91.0240 nv         1 ZRD      -1.017200
     16 S           22.6000    56.6750    90.6550 ss         1 ZRD      -0.384200
     17 C8          22.8780    55.5390    86.8250 cc         1 ZRD      -0.214300
     18 S1          22.8410    56.1930    85.2380 ss         1 ZRD       0.300100
     19 N4          24.4130    55.8280    84.8870 nc         1 ZRD      -0.494100
     20 C10         24.9560    55.2350    85.9160 cd         1 ZRD       0.285900
     21 C9          24.1290    55.0420    87.0510 cd         1 ZRD      -0.167000
     22 H1          15.4150    56.3420    89.6110 h4         1 ZRD       0.036600
     23 H2          23.3860    57.7160    88.6370 h1         1 ZRD       0.083200
     24 H3          22.1280    58.6420    89.4500 h1         1 ZRD       0.083200
     25 H4          21.4040    57.6660    87.2940 hc         1 ZRD       0.078700
     26 H5          19.4180    57.8860    88.5150 h1         1 ZRD       0.069200
     27 H6          19.9160    56.7790    89.7900 h1         1 ZRD       0.069200
     28 H7          16.1090    53.3390    86.6350 h4         1 ZRD       0.036600
     29 H8          20.3120    55.5510    86.0840 h1         1 ZRD       0.074700
     30 H9          20.2660    54.1120    87.1080 h1         1 ZRD       0.074700
     31 H10         22.4270    53.1530    90.7220 hn         1 ZRD       0.479500
     32 H11         23.0350    54.3110    91.8010 hn         1 ZRD       0.479500
     33 H12         25.9920    54.9230    85.8550 h4         1 ZRD       0.049100
     34 H13         24.4470    54.5650    87.9650 ha         1 ZRD       0.154000
     35 F           14.2820    54.4090    88.2150 f          1 ZRD      -0.167000
@<TRIPOS>BOND
     1     1     6 1   
     2     1    13 1   
     3     1    14 1   
     4     1    17 1   
     5     2    14 2   
     6     2    15 1   
     7     2    16 1   
     8     3     9 ar  
     9     3    12 ar  
    10     3    22 1   
    11     4     7 1   
    12     4     8 1   
    13     4    13 1   
    14     5     6 1   
    15     5    16 1   
    16     5    23 1   
    17     5    24 1   
    18     6     7 1   
    19     6    25 1   
    20     7    26 1   
    21     7    27 1   
    22     8    11 ar  
    23     8    12 ar  
    24     9    10 ar  
    25     9    35 1   
    26    10    11 ar  
    27    10    28 1   
    28    13    29 1   
    29    13    30 1   
    30    15    31 1   
    31    15    32 1   
    32    17    18 1   
    33    17    21 2   
    34    18    19 1   
    35    19    20 2   
    36    20    21 1   
    37    20    33 1   
    38    21    34 1   
@<TRIPOS>SUBSTRUCTURE
     1 ZRD         1 TEMP              0 ****  ****    0 ROOT
