@<TRIPOS>MOLECULE
ZRE
   22    23     1     0     0
SMALL
No Charge or Current Charge


@<TRIPOS>ATOM
      1 C14         20.5060   170.2980    22.9650 ca         1 ZRE       0.221000
      2 C13         21.4890   171.1980    23.4070 ca         1 ZRE      -0.236000
      3 C12         21.9950   170.0750    27.0390 c6         1 ZRE      -0.010100
      4 C11         22.5510   171.4300    27.5480 c6         1 ZRE      -0.158400
      5 C04         19.9860   169.3210    23.8370 ca         1 ZRE      -0.182600
      6 C05         20.4610   169.2630    25.1650 ca         1 ZRE      -0.037000
      7 C06         21.4440   170.1670    25.6120 ca         1 ZRE      -0.172300
      8 C07         21.9560   171.1340    24.7280 ca         1 ZRE      -0.029000
      9 C09         23.3640   172.1950    26.4900 c          1 ZRE       0.569000
     10 F15         20.0530   170.4080    21.6950 f          1 ZRE      -0.166000
     11 N08         22.9410   172.0310    25.1860 ns         1 ZRE      -0.142000
     12 O01         17.9950   168.1330    24.1190 o          1 ZRE      -0.707000
     13 O03         19.1110   167.7640    22.3150 o          1 ZRE      -0.707000
     14 O10         24.3330   172.8840    26.7850 o          1 ZRE      -0.584000
     15 H1          21.8780   171.9470    22.7230 ha         1 ZRE       0.110000
     16 H2          21.2200   169.7120    27.7290 hc         1 ZRE       0.047700
     17 H3          22.7990   169.3260    27.0590 hc         1 ZRE       0.047700
     18 H4          23.1120   171.3490    28.4890 hc         1 ZRE       0.064200
     19 H5          21.6700   172.0560    27.7410 hc         1 ZRE       0.064200
     20 H6          20.0720   168.5070    25.8450 ha         1 ZRE       0.137000
     21 H7          23.4330   172.5610    24.4790 hn         1 ZRE       0.147000
     22 C02         18.9400   168.3500    23.3740 c          1 ZRE       0.723600
@<TRIPOS>BOND
     1     1     2 ar  
     2     1     5 ar  
     3     1    10 1   
     4     2     8 ar  
     5     2    15 1   
     6     3     4 1   
     7     3     7 1   
     8     3    16 1   
     9     3    17 1   
    10     4     9 1   
    11     4    18 1   
    12     4    19 1   
    13     5     6 ar  
    14     5    22 1   
    15     6     7 ar  
    16     6    20 1   
    17     7     8 ar  
    18     8    11 1   
    19     9    11 1   
    20     9    14 2   
    21    11    21 1   
    22    12    22 1   
    23    13    22 1   
@<TRIPOS>SUBSTRUCTURE
     1 ZRE         1 TEMP              0 ****  ****    0 ROOT
