@<TRIPOS>MOLECULE
ZRE
   22    23     1     0     0
SMALL
abcg2


@<TRIPOS>ATOM
      1 C14         20.5810   170.2730    23.0030 ca         1 ZRE       0.221000
      2 C13         21.5740   171.1390    23.4260 ca         1 ZRE      -0.236000
      3 C12         22.0370   170.0620    27.0010 c6         1 ZRE      -0.010100
      4 C11         22.4290   171.4520    27.4850 c6         1 ZRE      -0.158400
      5 C04         19.9790   169.3420    23.8410 ca         1 ZRE      -0.182600
      6 C05         20.4570   169.3150    25.1540 ca         1 ZRE      -0.037000
      7 C06         21.4700   170.1350    25.6160 ca         1 ZRE      -0.172300
      8 C07         22.0210   171.0690    24.7370 ca         1 ZRE      -0.029000
      9 C09         23.2970   172.1860    26.4940 c          1 ZRE       0.569000
     10 F15         20.2060   170.4050    21.7230 f          1 ZRE      -0.166000
     11 N08         23.0290   171.9200    25.1850 ns         1 ZRE      -0.142000
     12 O01         18.3030   167.7780    24.3660 o          1 ZRE      -0.707000
     13 O03         18.6420   168.2470    22.2130 o          1 ZRE      -0.707000
     14 O10         24.1550   172.9870    26.8160 o          1 ZRE      -0.584000
     15 H1          21.9890   171.8630    22.7350 ha         1 ZRE       0.110000
     16 H2          21.3210   169.6130    27.6890 hc         1 ZRE       0.047700
     17 H3          22.9210   169.4150    27.0040 hc         1 ZRE       0.047700
     18 H4          22.9530   171.4100    28.4390 hc         1 ZRE       0.064200
     19 H5          21.5310   172.0590    27.6410 hc         1 ZRE       0.064200
     20 H6          20.0110   168.6040    25.8370 ha         1 ZRE       0.137000
     21 H7          23.5330   172.4640    24.4980 hn         1 ZRE       0.147000
     22 C02         18.8710   168.3700    23.4280 c          1 ZRE       0.723600
@<TRIPOS>BOND
     1     1     2 ar  
     2     1     5 ar  
     3     1    10 1   
     4     2     8 ar  
     5     2    15 1   
     6     3     4 1   
     7     3     7 1   
     8     3    16 1   
     9     3    17 1   
    10     4     9 1   
    11     4    18 1   
    12     4    19 1   
    13     5     6 ar  
    14     5    22 1   
    15     6     7 ar  
    16     6    20 1   
    17     7     8 ar  
    18     8    11 1   
    19     9    11 1   
    20     9    14 2   
    21    11    21 1   
    22    12    22 1   
    23    13    22 1   
@<TRIPOS>SUBSTRUCTURE
     1 ZRE         1 TEMP              0 ****  ****    0 ROOT
