@<TRIPOS>MOLECULE
ZRF
   25    25     1     0     0
SMALL
abcg2


@<TRIPOS>ATOM
      1 CB          -0.4390     2.7780     0.4000 c3         1 ZRF      -0.089100
      2 CA1         -0.0530     1.7720    -0.6820 c3         1 ZRF       0.157200
      3 N1          -1.1420     1.6130    -1.6300 n8         1 ZRF      -1.020200
      4 C1           0.4980     0.5080    -0.0750 cc         1 ZRF       0.442900
      5 N2           1.7540     0.2300    -0.1280 nd         1 ZRF      -0.653300
      6 CA2          1.9130    -0.9690     0.5650 cd         1 ZRF      -0.053600
      7 CB2          3.1140    -1.5570     0.7230 c2         1 ZRF       0.036100
      8 O1           3.2780    -2.6910     1.3840 oh         1 ZRF      -0.504100
      9 C2           0.6060    -1.4270     1.0470 c          1 ZRF       0.558200
     10 O2           0.2800    -2.4250     1.6640 o          1 ZRF      -0.517000
     11 N3          -0.2420    -0.4200     0.6350 n          1 ZRF      -0.308300
     12 CA3         -1.6740    -0.5600     0.6920 c3         1 ZRF      -0.061000
     13 C3          -2.2790    -1.2930    -0.5330 c          1 ZRF       0.705000
     14 OXT         -1.4850    -1.7450    -1.3750 o          1 ZRF      -0.717500
     15 O3          -3.5210    -1.3550    -0.5270 o          1 ZRF      -0.717500
     16 HB1          0.3870     2.9450     1.0900 hc         1 ZRF       0.036033
     17 HB2         -0.6960     3.7320    -0.0610 hc         1 ZRF       0.036033
     18 HB3         -1.3010     2.4440     0.9790 hc         1 ZRF       0.036033
     19 HA1          0.8000     2.1880    -1.2240 h1         1 ZRF       0.069700
     20 H           -0.9880     0.8140    -2.2320 hn         1 ZRF       0.427500
     21 H2          -2.0220     1.4520    -1.1570 hn         1 ZRF       0.427500
     22 HB21         3.9930    -1.0820     0.2960 h4         1 ZRF       0.168000
     23 H8           4.2070    -2.9470     1.3880 ho         1 ZRF       0.452000
     24 HA31        -1.9160    -1.1270     1.5930 h1         1 ZRF       0.043700
     25 HA32        -2.1430     0.4150     0.8260 h1         1 ZRF       0.043700
@<TRIPOS>BOND
     1     1     2 1   
     2     1    16 1   
     3     1    17 1   
     4     1    18 1   
     5     2     3 1   
     6     2     4 1   
     7     2    19 1   
     8     3    20 1   
     9     3    21 1   
    10     4     5 2   
    11     4    11 1   
    12     5     6 1   
    13     6     7 2   
    14     6     9 1   
    15     7     8 1   
    16     7    22 1   
    17     8    23 1   
    18     9    10 2   
    19     9    11 1   
    20    11    12 1   
    21    12    13 1   
    22    12    24 1   
    23    12    25 1   
    24    13    14 1   
    25    13    15 1   
@<TRIPOS>SUBSTRUCTURE
     1 ZRF         1 TEMP              0 ****  ****    0 ROOT
