@<TRIPOS>MOLECULE
ZRF
   25    25     1     0     0
SMALL
No Charge or Current Charge


@<TRIPOS>ATOM
      1 CB          -0.4920     2.8480     0.3420 c3         1 ZRF      -0.089100
      2 CA1          0.0120     1.8110    -0.6880 c3         1 ZRF       0.157200
      3 N1          -0.9800     1.6410    -1.7970 n8         1 ZRF      -1.020200
      4 C1           0.5520     0.5110    -0.0530 cc         1 ZRF       0.442900
      5 N2           1.8630     0.2240    -0.0690 nd         1 ZRF      -0.653300
      6 CA2          1.8950    -0.9930     0.5970 cd         1 ZRF      -0.053600
      7 CB2          3.0660    -1.6630     0.8130 c2         1 ZRF       0.036100
      8 O1           3.1700    -2.8490     1.4520 oh         1 ZRF      -0.504100
      9 C2           0.5740    -1.4850     1.0400 c          1 ZRF       0.558200
     10 O2           0.2380    -2.4980     1.6440 o          1 ZRF      -0.517000
     11 N3          -0.2280    -0.4620     0.5810 n          1 ZRF      -0.308300
     12 CA3         -1.7090    -0.4860     0.7510 c3         1 ZRF      -0.061000
     13 C3          -2.4650    -1.2470    -0.3580 c          1 ZRF       0.705000
     14 OXT         -2.6760    -0.6550    -1.4060 o          1 ZRF      -0.717500
     15 O3          -2.8110    -2.4000    -0.1480 o          1 ZRF      -0.717500
     16 HB1          0.2710     3.0210     1.1100 hc         1 ZRF       0.036033
     17 HB2         -0.6960     3.8080    -0.1490 hc         1 ZRF       0.036033
     18 HB3         -1.4100     2.5260     0.8420 hc         1 ZRF       0.036033
     19 HA1          0.8860     2.2910    -1.1530 h1         1 ZRF       0.069700
     20 H           -0.5160     1.1800    -2.5890 hn         1 ZRF       0.427500
     21 H2          -1.6810     0.9290    -1.5230 hn         1 ZRF       0.427500
     22 HB21         4.0000    -1.2280     0.4510 h4         1 ZRF       0.168000
     23 H8           4.1190    -3.1060     1.4700 ho         1 ZRF       0.452000
     24 HA31        -1.9500    -0.9560     1.7130 h1         1 ZRF       0.043700
     25 HA32        -2.1040     0.5320     0.7850 h1         1 ZRF       0.043700
@<TRIPOS>BOND
     1     1     2 1   
     2     1    16 1   
     3     1    17 1   
     4     1    18 1   
     5     2     3 1   
     6     2     4 1   
     7     2    19 1   
     8     3    20 1   
     9     3    21 1   
    10     4     5 2   
    11     4    11 1   
    12     5     6 1   
    13     6     7 2   
    14     6     9 1   
    15     7     8 1   
    16     7    22 1   
    17     8    23 1   
    18     9    10 2   
    19     9    11 1   
    20    11    12 1   
    21    12    13 1   
    22    12    24 1   
    23    12    25 1   
    24    13    14 1   
    25    13    15 1   
@<TRIPOS>SUBSTRUCTURE
     1 ZRF         1 TEMP              0 ****  ****    0 ROOT
