@<TRIPOS>MOLECULE
ZRG
   42    41     1     0     0
SMALL
No Charge or Current Charge


@<TRIPOS>ATOM
      1 CAC         -2.2460     3.5510     0.7590 c3         1 ZRG      -0.175100
      2 CAP         -2.2200     2.3090    -0.1210 c          1 ZRG       0.605100
      3 OAE         -1.7500     2.3130    -1.2490 o          1 ZRG      -0.609100
      4 N           -2.7710     1.1860     0.4530 ns         1 ZRG      -0.492900
      5 CA          -2.8660    -0.1470    -0.1880 c3         1 ZRG       0.039700
      6 C           -4.2460    -0.7990     0.1290 c          1 ZRG       0.589100
      7 O           -5.0010    -0.3850     1.0010 o          1 ZRG      -0.597100
      8 NAL         -4.5760    -1.8880    -0.6520 ns         1 ZRG      -0.502900
      9 CAB         -5.8200    -2.6490    -0.5230 c3         1 ZRG       0.096300
     10 CB          -1.6930    -1.0680     0.2480 c3         1 ZRG      -0.086400
     11 CG          -0.2850    -0.5460    -0.1310 c3         1 ZRG      -0.095400
     12 CD           0.8410    -1.5280     0.2490 c3         1 ZRG       0.239800
     13 NE           2.1450    -0.9770    -0.1340 nu         1 ZRG      -0.917400
     14 CZ           3.3330    -1.5580     0.1370 c2         1 ZRG       0.712800
     15 NH1          3.4170    -2.7980     0.3560 n2         1 ZRG      -0.905100
     16 NH2          4.4140    -0.7390    -0.0590 ns         1 ZRG      -0.503400
     17 CAR          4.4780     0.6240    -0.0640 c          1 ZRG       0.666100
     18 OAF          3.5180     1.3620     0.0960 o          1 ZRG      -0.642100
     19 NAK          5.7460     1.0930    -0.2720 ns         1 ZRG      -0.519900
     20 CAA          6.0940     2.5150    -0.3240 c3         1 ZRG       0.108300
     21 H1AC        -1.8030     4.4260     0.2690 hc         1 ZRG       0.060033
     22 H2AC        -3.2780     3.7440     1.0750 hc         1 ZRG       0.060033
     23 H3AC        -1.7500     3.3250     1.7100 hc         1 ZRG       0.060033
     24 HN          -3.1690     1.2990     1.3790 hn         1 ZRG       0.321500
     25 HA          -2.8260    -0.0200    -1.2780 h1         1 ZRG       0.070700
     26 HNAL        -3.9060    -2.1690    -1.3590 hn         1 ZRG       0.315500
     27 H1AB        -6.6780    -1.9880    -0.7010 h1         1 ZRG       0.040367
     28 H2AB        -5.8300    -3.4620    -1.2600 h1         1 ZRG       0.040367
     29 H3AB        -5.8900    -3.0750     0.4860 h1         1 ZRG       0.040367
     30 H1B         -1.7410    -1.2180     1.3340 hc         1 ZRG       0.058200
     31 H2B         -1.8280    -2.0570    -0.2090 hc         1 ZRG       0.058200
     32 H1G         -0.2500    -0.3580    -1.2110 hc         1 ZRG       0.050700
     33 H2G         -0.1030     0.4110     0.3730 hc         1 ZRG       0.050700
     34 H1D          0.8120    -1.7090     1.3330 h1         1 ZRG       0.049200
     35 H2D          0.6710    -2.4880    -0.2600 h1         1 ZRG       0.049200
     36 HNE          2.2300     0.0420    -0.1400 hn         1 ZRG       0.525000
     37 HH1          4.4080    -3.0430     0.4620 hn         1 ZRG       0.379400
     38 HNH2         5.2930    -1.2110    -0.1840 hn         1 ZRG       0.312500
     39 HNAK         6.4840     0.4120    -0.3990 hn         1 ZRG       0.315500
     40 H1AA         5.5420     3.0010    -1.1400 h1         1 ZRG       0.044033
     41 H2AA         5.8330     2.9940     0.6280 h1         1 ZRG       0.044033
     42 H3AA         7.1710     2.6240    -0.5010 h1         1 ZRG       0.044033
@<TRIPOS>BOND
     1     1     2 1   
     2     1    21 1   
     3     1    22 1   
     4     1    23 1   
     5     2     3 2   
     6     2     4 1   
     7     4     5 1   
     8     4    24 1   
     9     5     6 1   
    10     5    10 1   
    11     5    25 1   
    12     6     7 2   
    13     6     8 1   
    14     8     9 1   
    15     8    26 1   
    16     9    27 1   
    17     9    28 1   
    18     9    29 1   
    19    10    11 1   
    20    10    30 1   
    21    10    31 1   
    22    11    12 1   
    23    11    32 1   
    24    11    33 1   
    25    12    13 1   
    26    12    34 1   
    27    12    35 1   
    28    13    14 1   
    29    13    36 1   
    30    14    15 2   
    31    14    16 1   
    32    15    37 1   
    33    16    17 1   
    34    16    38 1   
    35    17    18 2   
    36    17    19 1   
    37    19    20 1   
    38    19    39 1   
    39    20    40 1   
    40    20    41 1   
    41    20    42 1   
@<TRIPOS>SUBSTRUCTURE
     1 ZRG         1 TEMP              0 ****  ****    0 ROOT
