@<TRIPOS>MOLECULE
ZRG
   42    41     1     0     0
SMALL
abcg2


@<TRIPOS>ATOM
      1 CAC         -3.2630     3.4680     0.9700 c3         1 ZRG      -0.175100
      2 CAP         -3.4100     2.2140     0.1470 c          1 ZRG       0.605100
      3 OAE         -4.2000     2.1330    -0.7840 o          1 ZRG      -0.609100
      4 N           -2.6020     1.1950     0.4840 ns         1 ZRG      -0.492900
      5 CA          -2.6600    -0.0760    -0.1870 c3         1 ZRG       0.039700
      6 C           -4.0070    -0.7570     0.0670 c          1 ZRG       0.589100
      7 O           -4.6070    -0.6290     1.1230 o          1 ZRG      -0.597100
      8 NAL         -4.4290    -1.5460    -0.9270 ns         1 ZRG      -0.502900
      9 CAB         -5.6300    -2.3430    -0.8320 c3         1 ZRG       0.096300
     10 CB          -1.5320    -0.9820     0.3090 c3         1 ZRG      -0.086400
     11 CG          -0.1490    -0.4750    -0.0750 c3         1 ZRG      -0.095400
     12 CD           0.9480    -1.4010     0.4270 c3         1 ZRG       0.239800
     13 NE           2.2400    -0.8630     0.0790 nu         1 ZRG      -0.917400
     14 CZ           3.3750    -1.5440     0.3500 c2         1 ZRG       0.712800
     15 NH1          3.3430    -2.7550     0.7630 n2         1 ZRG      -0.905100
     16 NH2          4.5770    -0.8640     0.1200 ns         1 ZRG      -0.503400
     17 CAR          4.7710     0.4630    -0.2060 c          1 ZRG       0.666100
     18 OAF          3.8560     1.2710    -0.3310 o          1 ZRG      -0.642100
     19 NAK          6.0590     0.8050    -0.3780 ns         1 ZRG      -0.519900
     20 CAA          6.4450     2.1580    -0.7030 c3         1 ZRG       0.108300
     21 H1AC        -2.8890     4.2720     0.3350 hc         1 ZRG       0.060033
     22 H2AC        -4.2390     3.7760     1.3430 hc         1 ZRG       0.060033
     23 H3AC        -2.5850     3.3570     1.8140 hc         1 ZRG       0.060033
     24 HN          -2.0320     1.2750     1.3110 hn         1 ZRG       0.321500
     25 HA          -2.5340     0.0790    -1.2640 h1         1 ZRG       0.070700
     26 HNAL        -3.9110    -1.5700    -1.7890 hn         1 ZRG       0.315500
     27 H1AB        -6.5250    -1.7230    -0.7640 h1         1 ZRG       0.040367
     28 H2AB        -5.7060    -2.9570    -1.7240 h1         1 ZRG       0.040367
     29 H3AB        -5.6020    -3.0000     0.0370 h1         1 ZRG       0.040367
     30 H1B         -1.6100    -1.0910     1.3950 hc         1 ZRG       0.058200
     31 H2B         -1.6820    -1.9800    -0.1110 hc         1 ZRG       0.058200
     32 H1G         -0.0810    -0.3860    -1.1630 hc         1 ZRG       0.050700
     33 H2G          0.0140     0.5280     0.3310 hc         1 ZRG       0.050700
     34 H1D          0.8510    -1.5380     1.5120 h1         1 ZRG       0.049200
     35 H2D          0.8300    -2.3910    -0.0200 h1         1 ZRG       0.049200
     36 HNE          2.3280     0.1340    -0.0520 hn         1 ZRG       0.525000
     37 HH1          4.2730    -3.1330     0.8920 hn         1 ZRG       0.379400
     38 HNH2         5.4020    -1.4280     0.2570 hn         1 ZRG       0.312500
     39 HNAK         6.7870     0.1220    -0.2580 hn         1 ZRG       0.315500
     40 H1AA         5.9400     2.5140    -1.6000 h1         1 ZRG       0.044033
     41 H2AA         6.2350     2.8530     0.1110 h1         1 ZRG       0.044033
     42 H3AA         7.5150     2.1670    -0.8890 h1         1 ZRG       0.044033
@<TRIPOS>BOND
     1     1     2 1   
     2     1    21 1   
     3     1    22 1   
     4     1    23 1   
     5     2     3 2   
     6     2     4 1   
     7     4     5 1   
     8     4    24 1   
     9     5     6 1   
    10     5    10 1   
    11     5    25 1   
    12     6     7 2   
    13     6     8 1   
    14     8     9 1   
    15     8    26 1   
    16     9    27 1   
    17     9    28 1   
    18     9    29 1   
    19    10    11 1   
    20    10    30 1   
    21    10    31 1   
    22    11    12 1   
    23    11    32 1   
    24    11    33 1   
    25    12    13 1   
    26    12    34 1   
    27    12    35 1   
    28    13    14 1   
    29    13    36 1   
    30    14    15 2   
    31    14    16 1   
    32    15    37 1   
    33    16    17 1   
    34    16    38 1   
    35    17    18 2   
    36    17    19 1   
    37    19    20 1   
    38    19    39 1   
    39    20    40 1   
    40    20    41 1   
    41    20    42 1   
@<TRIPOS>SUBSTRUCTURE
     1 ZRG         1 TEMP              0 ****  ****    0 ROOT
