@<TRIPOS>MOLECULE
ZRH
   39    41     1     0     0
SMALL
No Charge or Current Charge


@<TRIPOS>ATOM
      1 C10        166.2370   136.7700   167.0160 ca         1 ZRH      -0.155000
      2 C11        167.3330   137.3860   166.3880 ca         1 ZRH      -0.079500
      3 C18        166.8420   143.2040   165.5120 ca         1 ZRH      -0.014000
      4 C20        167.6030   143.6120   163.2240 ca         1 ZRH       0.207000
      5 C02        165.0530   139.8970   162.2980 c          1 ZRH       0.649100
      6 C03        164.2050   138.6030   162.3390 c3         1 ZRH      -0.163700
      7 C04        162.9850   138.6860   161.3870 c3         1 ZRH      -0.085100
      8 C05        165.1010   137.3820   162.0150 c3         1 ZRH       0.169600
      9 C07        166.2180   137.1780   164.2290 ca         1 ZRH       0.153100
     10 C08        165.1220   136.5500   164.8610 ca         1 ZRH      -0.166500
     11 C09        165.1340   136.3500   166.2530 ca         1 ZRH      -0.079500
     12 C12        167.3210   137.5850   164.9970 ca         1 ZRH      -0.166500
     13 C15        165.2900   141.1460   165.6470 cc         1 ZRH       0.607800
     14 C17        166.1290   142.1050   165.0100 ca         1 ZRH      -0.267900
     15 C19        167.5900   143.9650   164.5910 ca         1 ZRH      -0.186000
     16 C22        166.8720   142.5030   162.7540 ca         1 ZRH      -0.155000
     17 C23        166.1290   141.7560   163.6870 ca         1 ZRH      -0.022000
     18 F21        168.3250   144.3510   162.3530 f          1 ZRH      -0.173000
     19 N13        165.2960   140.5880   163.5320 n          1 ZRH       0.055600
     20 N14        164.7860   140.2550   164.8220 nd         1 ZRH      -0.543300
     21 O01        165.5070   140.2880   161.2250 o          1 ZRH      -0.558100
     22 O06        166.2650   137.4100   162.8670 os         1 ZRH      -0.343100
     23 H1         166.2440   136.6150   168.0920 ha         1 ZRH       0.113000
     24 H2         168.1880   137.7090   166.9780 ha         1 ZRH       0.110500
     25 H3         166.8210   143.4640   166.5680 ha         1 ZRH       0.120000
     26 H4         163.8140   138.4620   163.3500 hc         1 ZRH       0.100700
     27 H5         162.3710   137.7800   161.4640 hc         1 ZRH       0.047033
     28 H6         162.3540   139.5450   161.6440 hc         1 ZRH       0.047033
     29 H7         163.3040   138.7950   160.3430 hc         1 ZRH       0.047033
     30 H8         164.5410   136.4450   162.1270 h1         1 ZRH       0.064700
     31 H9         165.4170   137.4450   160.9660 h1         1 ZRH       0.064700
     32 H10        164.2620   136.2090   164.2940 ha         1 ZRH       0.121000
     33 H11        164.2890   135.8680   166.7400 ha         1 ZRH       0.110500
     34 H12        168.1670   138.0640   164.5120 ha         1 ZRH       0.121000
     35 H13        168.1600   144.8250   164.9320 ha         1 ZRH       0.135000
     36 H14        166.8990   142.2540   161.6980 ha         1 ZRH       0.166000
     37 H15        164.6440   140.2280   167.2970 hn         1 ZRH       0.470000
     38 H16        165.6680   141.5830   167.5760 hn         1 ZRH       0.470000
     39 N16        165.0250   141.1030   166.9580 nv         1 ZRH      -0.991200
@<TRIPOS>BOND
     1     1     2 ar  
     2     1    11 ar  
     3     1    23 1   
     4     2    12 ar  
     5     2    24 1   
     6     3    14 ar  
     7     3    15 ar  
     8     3    25 1   
     9     4    15 ar  
    10     4    16 ar  
    11     4    18 1   
    12     5     6 1   
    13     5    19 1   
    14     5    21 2   
    15     6     7 1   
    16     6     8 1   
    17     6    26 1   
    18     7    27 1   
    19     7    28 1   
    20     7    29 1   
    21     8    22 1   
    22     8    30 1   
    23     8    31 1   
    24     9    10 ar  
    25     9    12 ar  
    26     9    22 1   
    27    10    11 ar  
    28    10    32 1   
    29    11    33 1   
    30    12    34 1   
    31    13    14 1   
    32    13    20 2   
    33    13    39 1   
    34    14    17 ar  
    35    15    35 1   
    36    16    17 ar  
    37    16    36 1   
    38    17    19 1   
    39    19    20 1   
    40    37    39 1   
    41    38    39 1   
@<TRIPOS>SUBSTRUCTURE
     1 ZRH         1 TEMP              0 ****  ****    0 ROOT
