@<TRIPOS>MOLECULE
ZRH
   39    41     1     0     0
SMALL
abcg2


@<TRIPOS>ATOM
      1 C10        166.0190   136.4070   167.1090 ca         1 ZRH      -0.155000
      2 C11        167.1750   136.9840   166.5940 ca         1 ZRH      -0.079500
      3 C18        166.8990   143.2780   165.3440 ca         1 ZRH      -0.014000
      4 C20        167.2810   143.8550   163.0550 ca         1 ZRH       0.207000
      5 C02        165.0680   140.0210   162.2780 c          1 ZRH       0.649100
      6 C03        164.2750   138.7400   162.4280 c3         1 ZRH      -0.163700
      7 C04        163.1700   138.6760   161.3790 c3         1 ZRH      -0.085100
      8 C05        165.2280   137.5560   162.2390 c3         1 ZRH       0.169600
      9 C07        166.1430   137.1750   164.4240 ca         1 ZRH       0.153100
     10 C08        164.9840   136.5930   164.9310 ca         1 ZRH      -0.166500
     11 C09        164.9330   136.2150   166.2680 ca         1 ZRH      -0.079500
     12 C12        167.2420   137.3640   165.2640 ca         1 ZRH      -0.166500
     13 C15        165.5560   141.0480   165.5420 cc         1 ZRH       0.607800
     14 C17        166.2380   142.1410   164.8920 ca         1 ZRH      -0.267900
     15 C19        167.4280   144.1460   164.4110 ca         1 ZRH      -0.186000
     16 C22        166.6380   142.7400   162.5640 ca         1 ZRH      -0.155000
     17 C23        166.1100   141.8800   163.5250 ca         1 ZRH      -0.022000
     18 F21        167.7950   144.7230   162.1720 f          1 ZRH      -0.173000
     19 N13        165.3910   140.7060   163.4270 n          1 ZRH       0.055600
     20 N14        165.0650   140.2210   164.6700 nd         1 ZRH      -0.543300
     21 O01        165.4250   140.4410   161.1980 o          1 ZRH      -0.558100
     22 O06        166.3120   137.5730   163.1440 os         1 ZRH      -0.343100
     23 H1         165.9670   136.1140   168.1490 ha         1 ZRH       0.113000
     24 H2         168.0350   137.1410   167.2330 ha         1 ZRH       0.110500
     25 H3         166.9970   143.4870   166.4020 ha         1 ZRH       0.120000
     26 H4         163.8280   138.6920   163.4200 hc         1 ZRH       0.100700
     27 H5         162.5840   137.7660   161.5120 hc         1 ZRH       0.047033
     28 H6         162.4890   139.5210   161.4750 hc         1 ZRH       0.047033
     29 H7         163.5710   138.6740   160.3660 hc         1 ZRH       0.047033
     30 H8         164.6660   136.6190   162.2910 h1         1 ZRH       0.064700
     31 H9         165.6770   137.6040   161.2460 h1         1 ZRH       0.064700
     32 H10        164.1120   136.4340   164.3110 ha         1 ZRH       0.121000
     33 H11        164.0240   135.7680   166.6500 ha         1 ZRH       0.110500
     34 H12        168.1410   137.8170   164.8670 ha         1 ZRH       0.121000
     35 H13        167.9470   145.0450   164.7160 ha         1 ZRH       0.135000
     36 H14        166.5540   142.5700   161.5020 ha         1 ZRH       0.166000
     37 H15        165.0930   139.9930   167.1940 hn         1 ZRH       0.470000
     38 H16        166.0760   141.3270   167.4740 hn         1 ZRH       0.470000
     39 N16        165.3790   140.9070   166.8800 nv         1 ZRH      -0.991200
@<TRIPOS>BOND
     1     1     2 ar  
     2     1    11 ar  
     3     1    23 1   
     4     2    12 ar  
     5     2    24 1   
     6     3    14 ar  
     7     3    15 ar  
     8     3    25 1   
     9     4    15 ar  
    10     4    16 ar  
    11     4    18 1   
    12     5     6 1   
    13     5    19 1   
    14     5    21 2   
    15     6     7 1   
    16     6     8 1   
    17     6    26 1   
    18     7    27 1   
    19     7    28 1   
    20     7    29 1   
    21     8    22 1   
    22     8    30 1   
    23     8    31 1   
    24     9    10 ar  
    25     9    12 ar  
    26     9    22 1   
    27    10    11 ar  
    28    10    32 1   
    29    11    33 1   
    30    12    34 1   
    31    13    14 1   
    32    13    20 2   
    33    13    39 1   
    34    14    17 ar  
    35    15    35 1   
    36    16    17 ar  
    37    16    36 1   
    38    17    19 1   
    39    19    20 1   
    40    37    39 1   
    41    38    39 1   
@<TRIPOS>SUBSTRUCTURE
     1 ZRH         1 TEMP              0 ****  ****    0 ROOT
