@<TRIPOS>MOLECULE
ZRI
   20    21     1     0     0
SMALL
abcg2


@<TRIPOS>ATOM
      1 C01         19.3430   167.7560    22.8380 c          1 ZRI       0.735000
      2 C02         19.9530   169.1270    23.0790 cx         1 ZRI      -0.185700
      3 C03         19.1330   170.2060    23.7070 cx         1 ZRI      -0.104400
      4 C04         20.2340   169.5710    24.5000 cx         1 ZRI      -0.231000
      5 C05         21.4630   170.3310    24.8080 ca         1 ZRI       0.427300
      6 C06         22.1170   170.1450    26.0260 ca         1 ZRI      -0.172000
      7 C07         23.2690   170.8650    26.2940 ca         1 ZRI      -0.080000
      8 C08         23.7430   171.7530    25.3390 ca         1 ZRI      -0.206000
      9 C09         23.0260   171.8730    24.1580 ca         1 ZRI       0.339900
     10 N01         21.9210   171.1890    23.8960 nb         1 ZRI      -0.679000
     11 O01         18.5270   167.3410    23.6850 o          1 ZRI      -0.732500
     12 O02         19.7120   167.1720    21.7990 o          1 ZRI      -0.732500
     13 H1          20.6830   169.4610    22.3500 hc         1 ZRI       0.072700
     14 H2          19.2880   171.2230    23.3700 hc         1 ZRI       0.061200
     15 H3          18.1170   169.9650    23.9940 hc         1 ZRI       0.061200
     16 H4          19.9250   168.8800    25.2750 hc         1 ZRI       0.097700
     17 H5          21.7220   169.4450    26.7520 ha         1 ZRI       0.121000
     18 H6          23.7890   170.7370    27.2340 ha         1 ZRI       0.099000
     19 H7          24.6400   172.3360    25.5000 ha         1 ZRI       0.104000
     20 H8          23.3620   172.5560    23.3850 h4         1 ZRI       0.001100
@<TRIPOS>BOND
     1     1     2 1   
     2     1    11 1   
     3     1    12 1   
     4     2     3 1   
     5     2     4 1   
     6     2    13 1   
     7     3     4 1   
     8     3    14 1   
     9     3    15 1   
    10     4     5 1   
    11     4    16 1   
    12     5     6 ar  
    13     5    10 ar  
    14     6     7 ar  
    15     6    17 1   
    16     7     8 ar  
    17     7    18 1   
    18     8     9 ar  
    19     8    19 1   
    20     9    10 ar  
    21     9    20 1   
@<TRIPOS>SUBSTRUCTURE
     1 ZRI         1 TEMP              0 ****  ****    0 ROOT
