@<TRIPOS>MOLECULE
ZRI
   20    21     1     0     0
SMALL
No Charge or Current Charge


@<TRIPOS>ATOM
      1 C01         19.0180   167.6630    23.6470 c          1 ZRI       0.735000
      2 C02         20.0850   168.7130    23.4000 cx         1 ZRI      -0.185700
      3 C03         19.6940   170.0280    22.7540 cx         1 ZRI      -0.104400
      4 C04         20.0780   169.9990    24.2180 cx         1 ZRI      -0.231000
      5 C05         21.3450   170.6210    24.7300 ca         1 ZRI       0.427300
      6 C06         22.3120   169.8490    25.4020 ca         1 ZRI      -0.172000
      7 C07         23.4800   170.4690    25.8730 ca         1 ZRI      -0.080000
      8 C08         23.6250   171.8470    25.6500 ca         1 ZRI      -0.206000
      9 C09         22.6090   172.5450    24.9750 ca         1 ZRI       0.339900
     10 N01         21.4840   171.9500    24.5210 nb         1 ZRI      -0.679000
     11 O01         18.8980   167.2210    24.7800 o          1 ZRI      -0.732500
     12 O02         18.3690   167.2650    22.6910 o          1 ZRI      -0.732500
     13 H1          21.0550   168.3100    23.1210 hc         1 ZRI       0.072700
     14 H2          20.3950   170.4720    22.0500 hc         1 ZRI       0.061200
     15 H3          18.6460   170.1880    22.5110 hc         1 ZRI       0.061200
     16 H4          19.2670   170.1170    24.9320 hc         1 ZRI       0.097700
     17 H5          22.1520   168.7860    25.5540 ha         1 ZRI       0.121000
     18 H6          24.2460   169.9000    26.3950 ha         1 ZRI       0.099000
     19 H7          24.5110   172.3740    25.9950 ha         1 ZRI       0.104000
     20 H8          22.6980   173.6150    24.7920 h4         1 ZRI       0.001100
@<TRIPOS>BOND
     1     1     2 1   
     2     1    11 1   
     3     1    12 1   
     4     2     3 1   
     5     2     4 1   
     6     2    13 1   
     7     3     4 1   
     8     3    14 1   
     9     3    15 1   
    10     4     5 1   
    11     4    16 1   
    12     5     6 ar  
    13     5    10 ar  
    14     6     7 ar  
    15     6    17 1   
    16     7     8 ar  
    17     7    18 1   
    18     8     9 ar  
    19     8    19 1   
    20     9    10 ar  
    21     9    20 1   
@<TRIPOS>SUBSTRUCTURE
     1 ZRI         1 TEMP              0 ****  ****    0 ROOT
