@<TRIPOS>MOLECULE
ZRK
   24    26     1     0     0
SMALL
No Charge or Current Charge


@<TRIPOS>ATOM
      1 C1           3.8330    -1.2650    -0.0120 cc         1 ZRK      -0.017400
      2 C2           2.5540    -1.7950    -0.0210 cd         1 ZRK      -0.381800
      3 C3           1.4650    -0.8700    -0.0180 cd         1 ZRK       0.282800
      4 C4           1.6750     0.4660    -0.0050 cc         1 ZRK      -0.263600
      5 C5           3.0090     1.0660     0.0060 c          1 ZRK       0.599600
      6 O8           3.2350     2.2660     0.0170 o          1 ZRK      -0.541000
      7 O10          0.1390    -1.2150    -0.0260 os         1 ZRK      -0.225000
      8 C11         -0.4950     0.0140    -0.0170 cd         1 ZRK       0.163500
      9 C12         -1.9710     0.0300    -0.0230 ca         1 ZRK      -0.077500
     10 C17         -2.6910     1.2420    -0.0150 ca         1 ZRK      -0.148500
     11 C16         -4.0970     1.2160    -0.0210 ca         1 ZRK       0.335400
     12 C9           0.3970     1.0620    -0.0050 cc         1 ZRK      -0.083000
     13 N15         -4.8140     0.0690    -0.0340 nb         1 ZRK      -0.659000
     14 C14         -4.1290    -1.0980    -0.0410 ca         1 ZRK       0.335400
     15 N3           4.0120     0.1200     0.0010 ns         1 ZRK      -0.382100
     16 C13         -2.7250    -1.1620    -0.0360 ca         1 ZRK      -0.148500
     17 H1           4.7640    -1.8290    -0.0130 h4         1 ZRK       0.204000
     18 H2           2.3770    -2.8660    -0.0310 ha         1 ZRK       0.218000
     19 H3           4.9510     0.5020     0.0080 hn         1 ZRK       0.329500
     20 H9           0.1820     2.1250     0.0040 ha         1 ZRK       0.158000
     21 H13         -2.2420    -2.1350    -0.0430 ha         1 ZRK       0.130500
     22 H17         -2.1830     2.2010    -0.0050 ha         1 ZRK       0.130500
     23 H14         -4.7250    -2.0100    -0.0520 h4         1 ZRK       0.020600
     24 H16         -4.6680     2.1440    -0.0150 h4         1 ZRK       0.020600
@<TRIPOS>BOND
     1     1     2 2   
     2     1    15 1   
     3     1    17 1   
     4     2     3 1   
     5     2    18 1   
     6     3     4 2   
     7     3     7 1   
     8     4     5 1   
     9     4    12 1   
    10     5     6 2   
    11     5    15 1   
    12     7     8 1   
    13     8     9 1   
    14     8    12 2   
    15     9    10 ar  
    16     9    16 ar  
    17    10    11 ar  
    18    10    22 1   
    19    11    13 ar  
    20    11    24 1   
    21    12    20 1   
    22    13    14 ar  
    23    14    16 ar  
    24    14    23 1   
    25    15    19 1   
    26    16    21 1   
@<TRIPOS>SUBSTRUCTURE
     1 ZRK         1 TEMP              0 ****  ****    0 ROOT
