@<TRIPOS>MOLECULE
ZRK
   24    26     1     0     0
SMALL
bcc


@<TRIPOS>ATOM
      1 C1           3.7420    -1.2690    -0.0110 cc         1 ZRK       0.032600
      2 C2           2.4920    -1.7960    -0.0200 cd         1 ZRK      -0.331800
      3 C3           1.4610    -0.8400    -0.0180 cd         1 ZRK       0.392500
      4 C4           1.6720     0.5220    -0.0060 cc         1 ZRK      -0.328900
      5 C5           3.0010     1.0660     0.0040 c          1 ZRK       0.742100
      6 O8           3.3010     2.2520     0.0150 o          1 ZRK      -0.616500
      7 O10          0.1520    -1.0990    -0.0260 os         1 ZRK      -0.313800
      8 C11         -0.5070     0.0990    -0.0180 cd         1 ZRK       0.273200
      9 C12         -1.9540     0.0560    -0.0230 ca         1 ZRK      -0.077500
     10 C17         -2.7010     1.2360    -0.0140 ca         1 ZRK      -0.231800
     11 C16         -4.0810     1.1560    -0.0200 ca         1 ZRK       0.400700
     12 C9           0.3840     1.1250    -0.0060 cc         1 ZRK      -0.166300
     13 N15         -4.7560     0.0100    -0.0330 nb         1 ZRK      -0.659000
     14 C14         -4.0440    -1.1100    -0.0420 ca         1 ZRK       0.400700
     15 N3           3.9660     0.0720     0.0000 ns         1 ZRK      -0.449100
     16 C13         -2.6590    -1.1480    -0.0370 ca         1 ZRK      -0.231800
     17 H1           4.6280    -1.8860    -0.0110 h4         1 ZRK       0.154000
     18 H2           2.3250    -2.8620    -0.0290 ha         1 ZRK       0.168000
     19 H3           4.9280     0.3850     0.0080 hn         1 ZRK       0.329500
     20 H9           0.1590     2.1790     0.0020 ha         1 ZRK       0.176000
     21 H13         -2.1550    -2.1040    -0.0450 ha         1 ZRK       0.148500
     22 H17         -2.2260     2.2070    -0.0020 ha         1 ZRK       0.148500
     23 H14         -4.6020    -2.0400    -0.0530 h4         1 ZRK       0.020600
     24 H16         -4.6710     2.0660    -0.0130 h4         1 ZRK       0.020600
@<TRIPOS>BOND
     1     1     2 2   
     2     1    15 1   
     3     1    17 1   
     4     2     3 1   
     5     2    18 1   
     6     3     4 2   
     7     3     7 1   
     8     4     5 1   
     9     4    12 1   
    10     5     6 2   
    11     5    15 1   
    12     7     8 1   
    13     8     9 1   
    14     8    12 2   
    15     9    10 ar  
    16     9    16 ar  
    17    10    11 ar  
    18    10    22 1   
    19    11    13 ar  
    20    11    24 1   
    21    12    20 1   
    22    13    14 ar  
    23    14    16 ar  
    24    14    23 1   
    25    15    19 1   
    26    16    21 1   
@<TRIPOS>SUBSTRUCTURE
     1 ZRK         1 TEMP              0 ****  ****    0 ROOT
