@<TRIPOS>MOLECULE
ZRL
   24    26     1     0     0
SMALL
bcc


@<TRIPOS>ATOM
      1 C3          -3.0110     1.1880    -0.0270 cc         1 ZRL       0.062600
      2 C2          -2.2250     0.0860    -0.0430 cd         1 ZRL      -0.120500
      3 C11         -0.8260     0.2870    -0.0250 cd         1 ZRL       0.043100
      4 C7          -0.2770     1.5590     0.0080 cc         1 ZRL      -0.208600
      5 C5          -1.1200     2.7330     0.0270 c          1 ZRL       0.735100
      6 O6          -0.7250     3.8890     0.0590 o          1 ZRL      -0.612500
      7 C9           1.6510     0.2760    -0.0040 cd         1 ZRL      -0.039100
      8 C12          3.0510    -0.1310    -0.0010 ca         1 ZRL       0.039000
      9 C13          3.4370    -1.4690     0.0590 ca         1 ZRL      -0.244300
     10 C14          4.7850    -1.7880     0.0600 ca         1 ZRL       0.405700
     11 C8           1.1400     1.5390     0.0200 cc         1 ZRL      -0.062000
     12 N15          5.7560    -0.8850     0.0080 nb         1 ZRL      -0.663000
     13 C16          5.3910     0.3920    -0.0490 ca         1 ZRL       0.405700
     14 N4          -2.4670     2.4310     0.0050 ns         1 ZRL      -0.439100
     15 C17          4.0740     0.8170    -0.0570 ca         1 ZRL      -0.244300
     16 S10          0.3840    -0.9210    -0.0420 ss         1 ZRL      -0.013800
     17 BR1         -2.9360    -1.6430    -0.0900 br         1 ZRL      -0.039700
     18 H13          2.7140    -2.2730     0.1090 ha         1 ZRL       0.142500
     19 H14          5.0870    -2.8280     0.1070 h4         1 ZRL       0.020100
     20 H17          3.8660     1.8770    -0.1100 ha         1 ZRL       0.142500
     21 H16          6.1880     1.1240    -0.0940 h4         1 ZRL       0.020100
     22 H8           1.7460     2.4340     0.0450 ha         1 ZRL       0.171000
     23 H3          -4.0910     1.1460    -0.0380 h4         1 ZRL       0.165000
     24 H4          -3.1050     3.2160     0.0160 hn         1 ZRL       0.332500
@<TRIPOS>BOND
     1     1     2 2   
     2     1    14 1   
     3     1    23 1   
     4     2     3 1   
     5     2    17 1   
     6     3     4 2   
     7     3    16 1   
     8     4     5 1   
     9     4    11 1   
    10     5     6 2   
    11     5    14 1   
    12     7     8 1   
    13     7    11 2   
    14     7    16 1   
    15     8     9 ar  
    16     8    15 ar  
    17     9    10 ar  
    18     9    18 1   
    19    10    12 ar  
    20    10    19 1   
    21    11    22 1   
    22    12    13 ar  
    23    13    15 ar  
    24    13    21 1   
    25    14    24 1   
    26    15    20 1   
@<TRIPOS>SUBSTRUCTURE
     1 ZRL         1 TEMP              0 ****  ****    0 ROOT
