@<TRIPOS>MOLECULE
ZRL
   24    26     1     0     0
SMALL
No Charge or Current Charge


@<TRIPOS>ATOM
      1 C3          -3.0750     1.2270    -0.0110 cc         1 ZRL       0.012600
      2 C2          -2.2980     0.0810    -0.0030 cd         1 ZRL      -0.120500
      3 C11         -0.8690     0.2580    -0.0020 cd         1 ZRL      -0.101800
      4 C7          -0.3140     1.5100    -0.0100 cc         1 ZRL      -0.208600
      5 C5          -1.1310     2.7410    -0.0180 c          1 ZRL       0.592600
      6 O6          -0.6820     3.8770    -0.0250 o          1 ZRL      -0.537000
      7 C9           1.6410     0.2080     0.0000 cd         1 ZRL      -0.184000
      8 C12          3.0740    -0.1550     0.0040 ca         1 ZRL       0.039000
      9 C13          3.4960    -1.5000     0.0130 ca         1 ZRL      -0.161000
     10 C14          4.8690    -1.7990     0.0160 ca         1 ZRL       0.340400
     11 C8           1.1070     1.4800    -0.0080 cc         1 ZRL      -0.044000
     12 N15          5.8310    -0.8510     0.0110 nb         1 ZRL      -0.663000
     13 C16          5.4340     0.4410     0.0020 ca         1 ZRL       0.340400
     14 N4          -2.4820     2.4900    -0.0180 ns         1 ZRL      -0.372100
     15 C17          4.0840     0.8280    -0.0010 ca         1 ZRL      -0.161000
     16 S10          0.3500    -1.0260     0.0070 ss         1 ZRL       0.276000
     17 Br1         -3.0790    -1.6370     0.0070 br         1 ZRL      -0.039700
     18 H13          2.7870    -2.3210     0.0170 ha         1 ZRL       0.124500
     19 H14          5.2090    -2.8340     0.0220 h4         1 ZRL       0.020100
     20 H17          3.8470     1.8860    -0.0080 ha         1 ZRL       0.124500
     21 H16          6.2240     1.1910    -0.0020 h4         1 ZRL       0.020100
     22 H8           1.6900     2.3950    -0.0130 ha         1 ZRL       0.153000
     23 H3          -4.1610     1.2530    -0.0120 h4         1 ZRL       0.215000
     24 H4          -3.0670     3.3170    -0.0240 hn         1 ZRL       0.332500
@<TRIPOS>BOND
     1     1     2 2   
     2     1    14 1   
     3     1    23 1   
     4     2     3 1   
     5     2    17 1   
     6     3     4 2   
     7     3    16 1   
     8     4     5 1   
     9     4    11 1   
    10     5     6 2   
    11     5    14 1   
    12     7     8 1   
    13     7    11 2   
    14     7    16 1   
    15     8     9 ar  
    16     8    15 ar  
    17     9    10 ar  
    18     9    18 1   
    19    10    12 ar  
    20    10    19 1   
    21    11    22 1   
    22    12    13 ar  
    23    13    15 ar  
    24    13    21 1   
    25    14    24 1   
    26    15    20 1   
@<TRIPOS>SUBSTRUCTURE
     1 ZRL         1 TEMP              0 ****  ****    0 ROOT
