@<TRIPOS>MOLECULE
ZRM
   35    38     1     0     0
SMALL
bcc


@<TRIPOS>ATOM
      1 C4           3.6790    -0.0360     0.9600 ca         1 ZRM      -0.079000
      2 C6           2.6060    -1.0500    -0.9210 ca         1 ZRM      -0.079000
      3 C3           4.6080    -1.0630     0.9910 ca         1 ZRM      -0.193000
      4 C7           3.5220    -2.0870    -0.8950 ca         1 ZRM      -0.193000
      5 C19         -3.2860    -2.0480    -0.1670 ca         1 ZRM      -0.244800
      6 C23         -4.5570    -0.0660     0.1570 ca         1 ZRM      -0.244800
      7 C14         -1.9760     1.4980    -0.0520 cc         1 ZRM      -0.061000
      8 C20         -4.4800    -2.7490    -0.1460 ca         1 ZRM       0.404200
      9 C22         -5.6890    -0.8600     0.1590 ca         1 ZRM       0.404200
     10 C18         -3.3060    -0.6620    -0.0110 ca         1 ZRM       0.041000
     11 C5           2.6640    -0.0070     0.0060 ca         1 ZRM      -0.077800
     12 C13         -0.6290     1.9360    -0.0640 cc         1 ZRM      -0.214600
     13 C2           4.5330    -2.1000     0.0640 ca         1 ZRM       0.146100
     14 C15         -2.0890     0.1400    -0.0240 cd         1 ZRM      -0.040100
     15 C17          0.2840     0.8920    -0.0490 cd         1 ZRM       0.053100
     16 C9           2.0770     2.4010    -0.0180 cc         1 ZRM       0.030600
     17 C8           1.6900     1.0980    -0.0280 cd         1 ZRM      -0.082400
     18 C11         -0.1840     3.3100    -0.0600 c          1 ZRM       0.731100
     19 N21         -5.6680    -2.1810     0.0120 nb         1 ZRM      -0.664000
     20 N10          1.1880     3.4290    -0.0300 ns         1 ZRM      -0.438100
     21 O12         -0.9150     4.2920    -0.0750 o          1 ZRM      -0.623500
     22 O1           5.4020    -3.1270     0.0480 oh         1 ZRM      -0.490100
     23 S16         -0.5220    -0.6240    -0.0120 ss         1 ZRM      -0.047800
     24 H4           3.7410     0.7490     1.7030 ha         1 ZRM       0.135500
     25 H3           5.3860    -1.0600     1.7460 ha         1 ZRM       0.142000
     26 H6           1.8490    -1.0480    -1.6960 ha         1 ZRM       0.135500
     27 H7           3.4620    -2.8840    -1.6250 ha         1 ZRM       0.142000
     28 H20         -4.4670    -3.8270    -0.2670 h4         1 ZRM       0.019600
     29 H23         -4.6630     1.0020     0.2910 ha         1 ZRM       0.143000
     30 H22         -6.6630    -0.4010     0.2890 h4         1 ZRM       0.019600
     31 H14         -2.8170     2.1760    -0.0690 ha         1 ZRM       0.171000
     32 H1           6.0530    -3.0290     0.7520 ho         1 ZRM       0.428000
     33 H9           3.1180     2.6920    -0.0110 h4         1 ZRM       0.154000
     34 H10          1.5580     4.3700    -0.0260 hn         1 ZRM       0.330500
     35 H19         -2.3630    -2.5950    -0.3140 ha         1 ZRM       0.143000
@<TRIPOS>BOND
     1     1     3 ar  
     2     1    11 ar  
     3     1    24 1   
     4     2     4 ar  
     5     2    11 ar  
     6     2    26 1   
     7     3    13 ar  
     8     3    25 1   
     9     4    13 ar  
    10     4    27 1   
    11     5     8 ar  
    12     5    10 ar  
    13     5    35 1   
    14     6     9 ar  
    15     6    10 ar  
    16     6    29 1   
    17     7    12 1   
    18     7    14 2   
    19     7    31 1   
    20     8    19 ar  
    21     8    28 1   
    22     9    19 ar  
    23     9    30 1   
    24    10    14 1   
    25    11    17 1   
    26    12    15 2   
    27    12    18 1   
    28    13    22 1   
    29    14    23 1   
    30    15    17 1   
    31    15    23 1   
    32    16    17 2   
    33    16    20 1   
    34    16    33 1   
    35    18    20 1   
    36    18    21 2   
    37    20    34 1   
    38    22    32 1   
@<TRIPOS>SUBSTRUCTURE
     1 ZRM         1 TEMP              0 ****  ****    0 ROOT
