@<TRIPOS>MOLECULE
ZRM
   35    38     1     0     0
SMALL
No Charge or Current Charge


@<TRIPOS>ATOM
      1 C4           3.9430     0.1260     0.7110 ca         1 ZRM      -0.061000
      2 C6           2.5460    -1.2510    -0.7150 ca         1 ZRM      -0.061000
      3 C3           4.9220    -0.8840     0.7280 ca         1 ZRM      -0.175000
      4 C7           3.5270    -2.2580    -0.6990 ca         1 ZRM      -0.175000
      5 C19         -3.4700    -2.0750    -0.1080 ca         1 ZRM      -0.161500
      6 C23         -4.6690     0.0050    -0.0590 ca         1 ZRM      -0.161500
      7 C14         -1.9770     1.4360     0.0020 cc         1 ZRM      -0.043000
      8 C20         -4.7090    -2.7360    -0.1360 ca         1 ZRM       0.338900
      9 C22         -5.8620    -0.7340    -0.0890 ca         1 ZRM       0.338900
     10 C18         -3.4300    -0.6660    -0.0680 ca         1 ZRM       0.041000
     11 C5           2.7300    -0.0480     0.0030 ca         1 ZRM      -0.077800
     12 C13         -0.6180     1.8490     0.0210 cc         1 ZRM      -0.214600
     13 C2           4.7110    -2.0780     0.0260 ca         1 ZRM       0.146100
     14 C15         -2.1490     0.0720    -0.0380 cd         1 ZRM      -0.185000
     15 C17          0.2710     0.8020    -0.0310 cd         1 ZRM      -0.091800
     16 C9           2.0950     2.3590     0.1430 cc         1 ZRM      -0.019400
     17 C8           1.7090     1.0310    -0.0120 cd         1 ZRM      -0.082400
     18 C11         -0.1920     3.2570     0.1060 c          1 ZRM       0.588600
     19 N21         -5.8940    -2.0850    -0.1270 nb         1 ZRM      -0.664000
     20 N10          1.1680     3.3980     0.1710 ns         1 ZRM      -0.371100
     21 O12         -0.9470     4.2180     0.1350 o          1 ZRM      -0.548000
     22 O1           5.6550    -3.0600     0.0340 oh         1 ZRM      -0.529100
     23 S16         -0.5750    -0.7610    -0.0270 ss         1 ZRM       0.242000
     24 H4           4.1260     1.0320     1.2830 ha         1 ZRM       0.117500
     25 H3           5.8380    -0.7300     1.2920 ha         1 ZRM       0.124000
     26 H6           1.6680    -1.4000    -1.3340 ha         1 ZRM       0.117500
     27 H7           3.3720    -3.1750    -1.2620 ha         1 ZRM       0.124000
     28 H20         -4.7550    -3.8240    -0.1670 h4         1 ZRM       0.019600
     29 H23         -4.7280     1.0870    -0.0300 ha         1 ZRM       0.125000
     30 H22         -6.8270    -0.2270    -0.0820 h4         1 ZRM       0.019600
     31 H14         -2.7870     2.1590     0.0270 ha         1 ZRM       0.153000
     32 H1           6.4100    -2.7600     0.5840 ho         1 ZRM       0.467000
     33 H9           3.1180     2.7150     0.2100 h4         1 ZRM       0.204000
     34 H10          1.4910     4.3550     0.2490 hn         1 ZRM       0.330500
     35 H19         -2.5640    -2.6710    -0.1190 ha         1 ZRM       0.125000
@<TRIPOS>BOND
     1     1     3 ar  
     2     1    11 ar  
     3     1    24 1   
     4     2     4 ar  
     5     2    11 ar  
     6     2    26 1   
     7     3    13 ar  
     8     3    25 1   
     9     4    13 ar  
    10     4    27 1   
    11     5     8 ar  
    12     5    10 ar  
    13     5    35 1   
    14     6     9 ar  
    15     6    10 ar  
    16     6    29 1   
    17     7    12 1   
    18     7    14 2   
    19     7    31 1   
    20     8    19 ar  
    21     8    28 1   
    22     9    19 ar  
    23     9    30 1   
    24    10    14 1   
    25    11    17 1   
    26    12    15 2   
    27    12    18 1   
    28    13    22 1   
    29    14    23 1   
    30    15    17 1   
    31    15    23 1   
    32    16    17 2   
    33    16    20 1   
    34    16    33 1   
    35    18    20 1   
    36    18    21 2   
    37    20    34 1   
    38    22    32 1   
@<TRIPOS>SUBSTRUCTURE
     1 ZRM         1 TEMP              0 ****  ****    0 ROOT
