@<TRIPOS>MOLECULE
ZRO
   33    34     1     0     0
SMALL
No Charge or Current Charge


@<TRIPOS>ATOM
      1 OAA          1.8200     2.6240     0.0730 o          1 ZRO      -0.688000
      2 CAP          2.9930     2.2930    -0.0200 c          1 ZRO       0.718200
      3 OAD          3.8780     3.1190    -0.2190 o          1 ZRO      -0.688000
      4 CAS          3.4110     0.8330     0.0910 cc         1 ZRO       0.029400
      5 NAN          4.7740     0.5930    -0.0710 ns         1 ZRO      -0.493600
      6 CAU          5.3900    -0.6130    -0.0390 c          1 ZRO       0.606000
      7 OAB          6.5890    -0.7430    -0.1910 o          1 ZRO      -0.606000
      8 NAO          4.5560    -1.6550     0.1720 ns         1 ZRO      -0.470500
      9 CAV          3.2070    -1.6340     0.3570 c          1 ZRO       0.579200
     10 OAC          2.5950    -2.6760     0.5320 o          1 ZRO      -0.589000
     11 CAT          2.5890    -0.2730     0.3230 cd         1 ZRO      -0.298400
     12 CAM          1.0820    -0.2470     0.5450 c3         1 ZRO       0.020800
     13 CAL          0.2910    -0.3040    -0.7790 c3         1 ZRO      -0.040100
     14 CAQ         -1.2140    -0.2600    -0.5520 ca         1 ZRO      -0.021300
     15 CAH         -1.8700     0.9740    -0.3870 ca         1 ZRO      -0.116500
     16 CAJ         -3.2580     1.0200    -0.1720 ca         1 ZRO      -0.070000
     17 CAR         -4.0150    -0.1710    -0.1230 ca         1 ZRO      -0.219300
     18 CAW         -5.5280    -0.1230     0.1230 c3         1 ZRO       0.354300
     19 FAF         -6.0940     1.0060    -0.3630 f          1 ZRO      -0.123333
     20 FAG         -6.1770    -1.1590    -0.4580 f          1 ZRO      -0.123333
     21 FAE         -5.8130    -0.1710     1.4440 f          1 ZRO      -0.123333
     22 CAK         -3.3510    -1.4070    -0.2770 ca         1 ZRO      -0.070000
     23 CAI         -1.9630    -1.4490    -0.4920 ca         1 ZRO      -0.116500
     24 H2           4.9870    -2.5650     0.1960 hn         1 ZRO       0.320500
     25 H4           0.7620    -1.0860     1.1750 hc         1 ZRO       0.058200
     26 H5           0.7820     0.6390     1.1150 hc         1 ZRO       0.058200
     27 H6           0.5970     0.5320    -1.4190 hc         1 ZRO       0.057700
     28 H7           0.5660    -1.2170    -1.3210 hc         1 ZRO       0.057700
     29 H8          -1.3000     1.9000    -0.4220 ha         1 ZRO       0.137000
     30 H9          -3.7400     1.9870    -0.0410 ha         1 ZRO       0.117500
     31 H10         -3.9070    -2.3410    -0.2280 ha         1 ZRO       0.117500
     32 H11         -1.4680    -2.4110    -0.6080 ha         1 ZRO       0.137000
     33 H12          5.3910     1.3830    -0.2360 hn         1 ZRO       0.489000
@<TRIPOS>BOND
     1     1     2 1   
     2     2     3 1   
     3     2     4 1   
     4     4     5 1   
     5     4    11 2   
     6     5     6 1   
     7     5    33 1   
     8     6     7 2   
     9     6     8 1   
    10     8     9 1   
    11     8    24 1   
    12     9    10 2   
    13     9    11 1   
    14    11    12 1   
    15    12    13 1   
    16    12    25 1   
    17    12    26 1   
    18    13    14 1   
    19    13    27 1   
    20    13    28 1   
    21    14    15 ar  
    22    14    23 ar  
    23    15    16 ar  
    24    15    29 1   
    25    16    17 ar  
    26    16    30 1   
    27    17    18 1   
    28    17    22 ar  
    29    18    19 1   
    30    18    20 1   
    31    18    21 1   
    32    22    23 ar  
    33    22    31 1   
    34    23    32 1   
@<TRIPOS>SUBSTRUCTURE
     1 ZRO         1 TEMP              0 ****  ****    0 ROOT
