@<TRIPOS>MOLECULE
ZRO
   33    34     1     0     0
SMALL
bcc


@<TRIPOS>ATOM
      1 OAA          1.6240     2.4730    -0.0500 o          1 ZRO      -0.793300
      2 CAP          2.8400     2.2600     0.0160 c          1 ZRO       0.928800
      3 OAD          3.7680     3.0870    -0.0030 o          1 ZRO      -0.793300
      4 CAS          3.3070     0.7930     0.1160 cc         1 ZRO       0.029400
      5 NAN          4.6590     0.6790    -0.0540 ns         1 ZRO      -0.447100
      6 CAU          5.3590    -0.4840    -0.0480 c          1 ZRO       0.815500
      7 OAB          6.5640    -0.5520    -0.2040 o          1 ZRO      -0.681500
      8 NAO          4.5690    -1.5860     0.1490 ns         1 ZRO      -0.604500
      9 CAV          3.2010    -1.6030     0.3440 c          1 ZRO       0.721700
     10 OAC          2.6290    -2.6700     0.5030 o          1 ZRO      -0.664500
     11 CAT          2.5420    -0.3030     0.3380 cd         1 ZRO      -0.298400
     12 CAM          1.0570    -0.3060     0.5420 c3         1 ZRO       0.020800
     13 CAL          0.2940    -0.4770    -0.7800 c3         1 ZRO      -0.040100
     14 CAQ         -1.1880    -0.3700    -0.5790 ca         1 ZRO      -0.021300
     15 CAH         -1.7730     0.8760    -0.3520 ca         1 ZRO      -0.134500
     16 CAJ         -3.1330     0.9960    -0.1300 ca         1 ZRO      -0.088000
     17 CAR         -3.9400    -0.1390    -0.1320 ca         1 ZRO      -0.219300
     18 CAW         -5.4000     0.0080     0.1500 c3         1 ZRO       0.718200
     19 FAF         -5.9430     1.0340    -0.5210 f          1 ZRO      -0.244633
     20 FAG         -6.1020    -1.0840    -0.1720 f          1 ZRO      -0.244633
     21 FAE         -5.6320     0.2450     1.4520 f          1 ZRO      -0.244633
     22 CAK         -3.3730    -1.3860    -0.3540 ca         1 ZRO      -0.088000
     23 CAI         -2.0070    -1.4940    -0.5760 ca         1 ZRO      -0.134500
     24 H2           5.0410    -2.4820     0.1470 hn         1 ZRO       0.320500
     25 H4           0.7920    -1.1250     1.2140 hc         1 ZRO       0.058200
     26 H5           0.7430     0.6180     1.0180 hc         1 ZRO       0.058200
     27 H6           0.6270     0.2950    -1.4750 hc         1 ZRO       0.057700
     28 H7           0.5430    -1.4430    -1.2250 hc         1 ZRO       0.057700
     29 H8          -1.1500     1.7620    -0.3510 ha         1 ZRO       0.155000
     30 H9          -3.5540     1.9780     0.0420 ha         1 ZRO       0.135500
     31 H10         -3.9800    -2.2820    -0.3600 ha         1 ZRO       0.135500
     32 H11         -1.5780    -2.4720    -0.7550 ha         1 ZRO       0.155000
     33 H12          5.1570     1.5530    -0.1810 hn         1 ZRO       0.375500
@<TRIPOS>BOND
     1     1     2 1   
     2     2     3 1   
     3     2     4 1   
     4     4     5 1   
     5     4    11 2   
     6     5     6 1   
     7     5    33 1   
     8     6     7 2   
     9     6     8 1   
    10     8     9 1   
    11     8    24 1   
    12     9    10 2   
    13     9    11 1   
    14    11    12 1   
    15    12    13 1   
    16    12    25 1   
    17    12    26 1   
    18    13    14 1   
    19    13    27 1   
    20    13    28 1   
    21    14    15 ar  
    22    14    23 ar  
    23    15    16 ar  
    24    15    29 1   
    25    16    17 ar  
    26    16    30 1   
    27    17    18 1   
    28    17    22 ar  
    29    18    19 1   
    30    18    20 1   
    31    18    21 1   
    32    22    23 ar  
    33    22    31 1   
    34    23    32 1   
@<TRIPOS>SUBSTRUCTURE
     1 ZRO         1 TEMP              0 ****  ****    0 ROOT
