@<TRIPOS>MOLECULE
ZRP
   56    58     1     0     0
SMALL
abcg2


@<TRIPOS>ATOM
      1 C1         -39.1930    10.7570     2.1310 c3         1 ZRP      -0.079400
      2 C2         -39.3940    10.6360     0.6270 c3         1 ZRP      -0.070400
      3 C3         -40.7210    11.2010     0.1290 c3         1 ZRP      -0.072400
      4 C7         -46.5090    10.1740     1.5650 ca         1 ZRP      -0.157000
      5 C8         -47.3690    10.5910     2.5310 ca         1 ZRP      -0.051000
      6 C9         -46.9970    11.6000     3.4530 ca         1 ZRP       0.238000
      7 C10        -45.6840    12.1220     3.3780 ca         1 ZRP      -0.045000
      8 C11        -44.8120    11.7020     2.3530 ca         1 ZRP      -0.185000
      9 C12        -45.3180    13.1050     4.3460 ca         1 ZRP       0.371000
     10 C13        -46.2870    13.5490     5.2350 ca         1 ZRP      -0.267600
     11 C14        -47.5790    12.9840     5.1610 ca         1 ZRP       0.360900
     12 C15        -45.9920    14.6150     6.2340 c          1 ZRP       0.622700
     13 C16        -46.4270    15.4740     8.4720 c3         1 ZRP       0.093300
     14 C19        -40.5080    12.7810     5.0050 ca         1 ZRP      -0.083000
     15 C20        -40.5730    11.4320     5.3310 ca         1 ZRP      -0.144000
     16 C21        -41.8070    10.7980     5.3220 ca         1 ZRP      -0.083000
     17 C22        -42.9660    11.4940     5.0050 ca         1 ZRP      -0.156500
     18 O          -45.2420    15.5550     5.9770 o          1 ZRP      -0.628100
     19 N2         -46.5980    14.4970     7.4220 ns         1 ZRP      -0.496900
     20 N1         -47.9230    12.0380     4.3330 nb         1 ZRP      -0.661000
     21 N3         -44.0280    13.6160     4.3620 nu         1 ZRP      -0.970000
     22 C17        -42.9010    12.8470     4.6690 ca         1 ZRP       0.294000
     23 C18        -41.6550    13.4810     4.6680 ca         1 ZRP      -0.156500
     24 C6         -45.2110    10.7510     1.4280 ca         1 ZRP       0.338000
     25 N          -44.4390    10.3450     0.3860 nu         1 ZRP      -0.979200
     26 C5         -43.2190    10.9890    -0.0340 c3         1 ZRP       0.228800
     27 C4         -41.9550    10.4690     0.6450 c3         1 ZRP      -0.099400
     28 C          -37.8310    10.2540     2.5880 c3         1 ZRP      -0.088100
     29 H1         -39.3150    11.8030     2.4290 hc         1 ZRP       0.041700
     30 H2         -39.9740    10.2070     2.6620 hc         1 ZRP       0.041700
     31 H3         -39.3110     9.5850     0.3300 hc         1 ZRP       0.037200
     32 H4         -38.5770    11.1580     0.1180 hc         1 ZRP       0.037200
     33 H5         -40.7890    12.2600     0.4010 hc         1 ZRP       0.036700
     34 H6         -40.7260    11.1710    -0.9660 hc         1 ZRP       0.036700
     35 H7         -46.8190     9.4090     0.8610 ha         1 ZRP       0.112000
     36 H8         -48.3640    10.1700     2.6010 ha         1 ZRP       0.131000
     37 H9         -43.8290    12.1460     2.2870 ha         1 ZRP       0.135000
     38 H10        -48.3580    13.3460     5.8250 h4         1 ZRP       0.015100
     39 H11        -47.0660    15.1960     9.3040 h1         1 ZRP       0.042367
     40 H12        -45.3960    15.5150     8.8250 h1         1 ZRP       0.042367
     41 H13        -46.7140    16.4700     8.1350 h1         1 ZRP       0.042367
     42 H14        -39.5550    13.2940     5.0040 ha         1 ZRP       0.111500
     43 H15        -39.6740    10.8840     5.5820 ha         1 ZRP       0.114000
     44 H16        -41.8790     9.7490     5.5790 ha         1 ZRP       0.111500
     45 H17        -43.9160    10.9780     5.0380 ha         1 ZRP       0.121500
     46 H18        -47.1140    13.6610     7.6380 hn         1 ZRP       0.321500
     47 H19        -43.9890    14.5570     4.7320 hn         1 ZRP       0.511000
     48 H20        -41.5910    14.5320     4.4110 ha         1 ZRP       0.121500
     49 H21        -44.8570     9.6990    -0.2600 hn         1 ZRP       0.485000
     50 H22        -43.1290    10.8400    -1.1120 h1         1 ZRP       0.042700
     51 H23        -43.3010    12.0710     0.1170 h1         1 ZRP       0.042700
     52 H24        -42.0470    10.5830     1.7290 hc         1 ZRP       0.051200
     53 H25        -41.8600     9.3960     0.4510 hc         1 ZRP       0.051200
     54 H26        -37.7120    10.3530     3.6680 hc         1 ZRP       0.029700
     55 H27        -37.6920     9.2010     2.3360 hc         1 ZRP       0.029700
     56 H28        -37.0230    10.8140     2.1150 hc         1 ZRP       0.029700
@<TRIPOS>BOND
     1     1     2 1   
     2     1    28 1   
     3     1    29 1   
     4     1    30 1   
     5     2     3 1   
     6     2    31 1   
     7     2    32 1   
     8     3    27 1   
     9     3    33 1   
    10     3    34 1   
    11     4     5 ar  
    12     4    24 ar  
    13     4    35 1   
    14     5     6 ar  
    15     5    36 1   
    16     6     7 ar  
    17     6    20 ar  
    18     7     8 ar  
    19     7     9 ar  
    20     8    24 ar  
    21     8    37 1   
    22     9    10 ar  
    23     9    21 1   
    24    10    11 ar  
    25    10    12 1   
    26    11    20 ar  
    27    11    38 1   
    28    12    18 2   
    29    12    19 1   
    30    13    19 1   
    31    13    39 1   
    32    13    40 1   
    33    13    41 1   
    34    14    15 ar  
    35    14    23 ar  
    36    14    42 1   
    37    15    16 ar  
    38    15    43 1   
    39    16    17 ar  
    40    16    44 1   
    41    17    22 ar  
    42    17    45 1   
    43    19    46 1   
    44    21    22 1   
    45    21    47 1   
    46    22    23 ar  
    47    23    48 1   
    48    24    25 1   
    49    25    26 1   
    50    25    49 1   
    51    26    27 1   
    52    26    50 1   
    53    26    51 1   
    54    27    52 1   
    55    27    53 1   
    56    28    54 1   
    57    28    55 1   
    58    28    56 1   
@<TRIPOS>SUBSTRUCTURE
     1 ZRP         1 TEMP              0 ****  ****    0 ROOT
