@<TRIPOS>MOLECULE
ZRP
   56    58     1     0     0
SMALL
No Charge or Current Charge


@<TRIPOS>ATOM
      1 C1         -39.2120    10.3410     2.1900 c3         1 ZRP      -0.079400
      2 C2         -39.4000    10.2330     0.6610 c3         1 ZRP      -0.070400
      3 C3         -40.6140    11.0210     0.1120 c3         1 ZRP      -0.072400
      4 C7         -46.4960    10.2580     1.4670 ca         1 ZRP      -0.157000
      5 C8         -47.3570    10.5720     2.5300 ca         1 ZRP      -0.051000
      6 C9         -46.9930    11.5200     3.5040 ca         1 ZRP       0.238000
      7 C10        -45.7220    12.1370     3.4180 ca         1 ZRP      -0.045000
      8 C11        -44.8630    11.8200     2.3320 ca         1 ZRP      -0.185000
      9 C12        -45.3670    13.0840     4.4150 ca         1 ZRP       0.371000
     10 C13        -46.3110    13.4310     5.4010 ca         1 ZRP      -0.267600
     11 C14        -47.5390    12.7590     5.3910 ca         1 ZRP       0.360900
     12 C15        -46.0530    14.4890     6.4370 c          1 ZRP       0.622700
     13 C16        -46.7590    15.4260     8.6600 c3         1 ZRP       0.093300
     14 C19        -40.4280    13.4700     4.8760 ca         1 ZRP      -0.083000
     15 C20        -40.2410    12.0850     5.0190 ca         1 ZRP      -0.144000
     16 C21        -41.3440    11.2170     4.9510 ca         1 ZRP      -0.083000
     17 C22        -42.6340    11.7360     4.7440 ca         1 ZRP      -0.156500
     18 O          -45.2180    15.3730     6.2890 o          1 ZRP      -0.628100
     19 N2         -46.8470    14.4590     7.5630 ns         1 ZRP      -0.496900
     20 N1         -47.8700    11.8230     4.4810 nb         1 ZRP      -0.661000
     21 N3         -44.0990    13.6730     4.4620 nu         1 ZRP      -0.970000
     22 C17        -42.8260    13.1230     4.6030 ca         1 ZRP       0.294000
     23 C18        -41.7200    13.9850     4.6740 ca         1 ZRP      -0.156500
     24 C6         -45.2520    10.8890     1.3540 ca         1 ZRP       0.338000
     25 N          -44.4560    10.5950     0.2450 nu         1 ZRP      -0.979200
     26 C5         -43.1630    11.1890    -0.1380 c3         1 ZRP       0.228800
     27 C4         -41.9910    10.5050     0.5950 c3         1 ZRP      -0.099400
     28 C          -37.9520     9.6150     2.6980 c3         1 ZRP      -0.088100
     29 H1         -39.1520    11.3990     2.4710 hc         1 ZRP       0.041700
     30 H2         -40.0860     9.9180     2.6980 hc         1 ZRP       0.041700
     31 H3         -39.4970     9.1770     0.3800 hc         1 ZRP       0.037200
     32 H4         -38.4950    10.6070     0.1670 hc         1 ZRP       0.037200
     33 H5         -40.5100    12.0800     0.3780 hc         1 ZRP       0.036700
     34 H6         -40.5820    10.9690    -0.9830 hc         1 ZRP       0.036700
     35 H7         -46.8110     9.5350     0.7190 ha         1 ZRP       0.112000
     36 H8         -48.3280    10.0880     2.5940 ha         1 ZRP       0.131000
     37 H9         -43.9050    12.3170     2.2350 ha         1 ZRP       0.135000
     38 H10        -48.3150    12.9770     6.1230 h4         1 ZRP       0.015100
     39 H11        -47.4950    15.1730     9.4330 h1         1 ZRP       0.042367
     40 H12        -45.7520    15.4000     9.0960 h1         1 ZRP       0.042367
     41 H13        -46.9650    16.4350     8.2800 h1         1 ZRP       0.042367
     42 H14        -39.5740    14.1430     4.9290 ha         1 ZRP       0.111500
     43 H15        -39.2430    11.6850     5.1820 ha         1 ZRP       0.114000
     44 H16        -41.2010    10.1450     5.0660 ha         1 ZRP       0.111500
     45 H17        -43.4800    11.0570     4.7140 ha         1 ZRP       0.121500
     46 H18        -47.5130    13.7010     7.6430 hn         1 ZRP       0.321500
     47 H19        -44.1560    14.5940     4.9110 hn         1 ZRP       0.511000
     48 H20        -41.8610    15.0580     4.5770 ha         1 ZRP       0.121500
     49 H21        -44.8470     9.9070    -0.4020 hn         1 ZRP       0.485000
     50 H22        -43.0150    11.0490    -1.2180 h1         1 ZRP       0.042700
     51 H23        -43.1560    12.2710     0.0540 h1         1 ZRP       0.042700
     52 H24        -42.0930    10.6690     1.6740 hc         1 ZRP       0.051200
     53 H25        -42.0480     9.4220     0.4250 hc         1 ZRP       0.051200
     54 H26        -37.8650     9.7170     3.7860 hc         1 ZRP       0.029700
     55 H27        -37.9950     8.5460     2.4560 hc         1 ZRP       0.029700
     56 H28        -37.0490    10.0380     2.2400 hc         1 ZRP       0.029700
@<TRIPOS>BOND
     1     1     2 1   
     2     1    28 1   
     3     1    29 1   
     4     1    30 1   
     5     2     3 1   
     6     2    31 1   
     7     2    32 1   
     8     3    27 1   
     9     3    33 1   
    10     3    34 1   
    11     4     5 ar  
    12     4    24 ar  
    13     4    35 1   
    14     5     6 ar  
    15     5    36 1   
    16     6     7 ar  
    17     6    20 ar  
    18     7     8 ar  
    19     7     9 ar  
    20     8    24 ar  
    21     8    37 1   
    22     9    10 ar  
    23     9    21 1   
    24    10    11 ar  
    25    10    12 1   
    26    11    20 ar  
    27    11    38 1   
    28    12    18 2   
    29    12    19 1   
    30    13    19 1   
    31    13    39 1   
    32    13    40 1   
    33    13    41 1   
    34    14    15 ar  
    35    14    23 ar  
    36    14    42 1   
    37    15    16 ar  
    38    15    43 1   
    39    16    17 ar  
    40    16    44 1   
    41    17    22 ar  
    42    17    45 1   
    43    19    46 1   
    44    21    22 1   
    45    21    47 1   
    46    22    23 ar  
    47    23    48 1   
    48    24    25 1   
    49    25    26 1   
    50    25    49 1   
    51    26    27 1   
    52    26    50 1   
    53    26    51 1   
    54    27    52 1   
    55    27    53 1   
    56    28    54 1   
    57    28    55 1   
    58    28    56 1   
@<TRIPOS>SUBSTRUCTURE
     1 ZRP         1 TEMP              0 ****  ****    0 ROOT
