@<TRIPOS>MOLECULE
ZRR
   61    65     1     0     0
SMALL
No Charge or Current Charge


@<TRIPOS>ATOM
      1 C13          5.0740    -6.3870    31.6920 ca         1 ZRR       0.327000
      2 C18          5.7790    -7.5040    32.1670 ca         1 ZRR      -0.144000
      3 C17          6.9580    -7.3280    32.9020 ca         1 ZRR       0.147100
      4 C16          7.4360    -6.0380    33.1810 ca         1 ZRR      -0.190000
      5 C15          6.7340    -4.8970    32.7230 ca         1 ZRR      -0.065500
      6 C19          7.1970    -3.5260    33.0280 cc         1 ZRR       0.550500
      7 C27          0.8810    -5.0030    32.1460 c6         1 ZRR       0.161300
      8 C1           2.1850    -6.9460    29.4150 cc         1 ZRR      -0.241000
      9 N2           1.5580    -7.8330    28.6040 na         1 ZRR       0.273900
     10 N3           1.9940    -9.1180    28.4130 nc         1 ZRR      -0.300800
     11 C4           3.1060    -9.4330    29.1130 cd         1 ZRR       0.132900
     12 N5           3.8140    -8.5970    29.9980 nd         1 ZRR      -0.296000
     13 C6           3.3180    -7.3830    30.1260 cc         1 ZRR       0.446900
     14 C7           1.5060    -5.7450    29.3090 cd         1 ZRR      -0.112200
     15 C8           0.4270    -5.9980    28.4050 cd         1 ZRR      -0.249000
     16 C9           0.4560    -7.3050    27.9640 cc         1 ZRR      -0.167100
     17 C10          1.7980    -4.3880    29.9270 c3         1 ZRR       0.226000
     18 N11          3.8790    -6.4860    30.9850 nu         1 ZRR      -0.938900
     19 N12          2.0200    -4.4030    31.3930 n3         1 ZRR      -0.742600
     20 C14          5.5550    -5.1020    31.9710 ca         1 ZRR      -0.165000
     21 N20          8.3400    -3.3050    33.7400 nc         1 ZRR      -0.383000
     22 N21          8.4550    -2.0120    33.8470 nd         1 ZRR      -0.178800
     23 N22          7.3680    -1.4990    33.1890 na         1 ZRR       0.236600
     24 N23          6.5490    -2.4460    32.6520 nd         1 ZRR      -0.526800
     25 C25          7.2160     0.4520    31.6200 c3         1 ZRR      -0.106600
     26 C26          5.7620     0.3550    33.7240 c3         1 ZRR      -0.106600
     27 C28          1.2010    -5.1050    33.6550 c6         1 ZRR      -0.097400
     28 C29          1.5540    -3.7150    34.2280 c6         1 ZRR       0.155500
     29 C30          2.7120    -3.0910    33.4220 c6         1 ZRR      -0.097400
     30 C31          2.3630    -3.0490    31.9150 c6         1 ZRR       0.161300
     31 N32          1.9050    -3.8120    35.6600 n8         1 ZRR      -0.993200
     32 O33          7.6330    -8.4210    33.3580 oh         1 ZRR      -0.535100
     33 H1           5.4140    -8.5080    31.9900 ha         1 ZRR       0.164000
     34 H2           8.3470    -5.9210    33.7620 ha         1 ZRR       0.136000
     35 H3           7.9000     0.4590    33.6500 h1         1 ZRR       0.083700
     36 H5           0.6560    -6.0130    31.7750 h1         1 ZRR       0.042450
     37 H6           3.5060   -10.4340    29.0000 h5         1 ZRR       0.055100
     38 H8          -0.3070    -5.2580    28.0930 ha         1 ZRR       0.204000
     39 H9          -0.1670    -7.8710    27.2800 h4         1 ZRR       0.236000
     40 H10          2.6850    -3.9790    29.4250 h1         1 ZRR       0.047200
     41 H11          0.9620    -3.7160    29.6880 h1         1 ZRR       0.047200
     42 H12          3.2700    -5.6570    31.0720 hn         1 ZRR       0.559000
     43 H14          5.0000    -4.2480    31.5960 ha         1 ZRR       0.133000
     44 H15          7.0970     1.5410    31.5730 hc         1 ZRR       0.056200
     45 H16          8.1950     0.1980    31.1970 hc         1 ZRR       0.056200
     46 H17          6.4410    -0.0060    30.9930 hc         1 ZRR       0.056200
     47 H18          5.7230     0.0270    34.7700 hc         1 ZRR       0.056200
     48 H19          5.6320     1.4440    33.7040 hc         1 ZRR       0.056200
     49 H20          4.9200    -0.1010    33.1890 hc         1 ZRR       0.056200
     50 H21          0.3370    -5.5280    34.1840 hc         1 ZRR       0.055450
     51 H22          2.0380    -5.8030    33.8000 hc         1 ZRR       0.055450
     52 H23          0.6700    -3.0620    34.1440 h1         1 ZRR       0.057700
     53 H24          3.6320    -3.6700    33.5710 hc         1 ZRR       0.055450
     54 H25          2.9180    -2.0740    33.7790 hc         1 ZRR       0.055450
     55 H26          3.2200    -2.6330    31.3670 h1         1 ZRR       0.042450
     56 H27          1.5190    -2.3590    31.7630 h1         1 ZRR       0.042450
     57 H28          1.1450    -4.2920    36.1540 hn         1 ZRR       0.395500
     58 H29          2.6970    -4.4570    35.7570 hn         1 ZRR       0.395500
     59 H31          8.4260    -8.1160    33.8500 ho         1 ZRR       0.465000
     60 C24          7.1100    -0.0450    33.0800 c3         1 ZRR       0.108300
     61 H4          -0.0290    -4.3990    32.0090 h1         1 ZRR       0.042450
@<TRIPOS>BOND
     1     1     2 ar  
     2     1    18 1   
     3     1    20 ar  
     4     2     3 ar  
     5     2    33 1   
     6     3     4 ar  
     7     3    32 1   
     8     4     5 ar  
     9     4    34 1   
    10     5     6 1   
    11     5    20 ar  
    12     6    21 1   
    13     6    24 2   
    14     7    19 1   
    15     7    27 1   
    16     7    36 1   
    17     7    61 1   
    18     8     9 1   
    19     8    13 1   
    20     8    14 2   
    21     9    10 1   
    22     9    16 1   
    23    10    11 2   
    24    11    12 1   
    25    11    37 1   
    26    12    13 2   
    27    13    18 1   
    28    14    15 1   
    29    14    17 1   
    30    15    16 2   
    31    15    38 1   
    32    16    39 1   
    33    17    19 1   
    34    17    40 1   
    35    17    41 1   
    36    18    42 1   
    37    19    30 1   
    38    20    43 1   
    39    21    22 2   
    40    22    23 1   
    41    23    24 1   
    42    23    60 1   
    43    25    44 1   
    44    25    45 1   
    45    25    46 1   
    46    25    60 1   
    47    26    47 1   
    48    26    48 1   
    49    26    49 1   
    50    26    60 1   
    51    27    28 1   
    52    27    50 1   
    53    27    51 1   
    54    28    29 1   
    55    28    31 1   
    56    28    52 1   
    57    29    30 1   
    58    29    53 1   
    59    29    54 1   
    60    30    55 1   
    61    30    56 1   
    62    31    57 1   
    63    31    58 1   
    64    32    59 1   
    65    35    60 1   
@<TRIPOS>SUBSTRUCTURE
     1 ZRR         1 TEMP              0 ****  ****    0 ROOT
