@<TRIPOS>MOLECULE
ZRR
   61    65     1     0     0
SMALL
abcg2


@<TRIPOS>ATOM
      1 C13          5.0850    -6.3180    31.5700 ca         1 ZRR       0.327000
      2 C18          5.7150    -7.4810    32.0160 ca         1 ZRR      -0.144000
      3 C17          6.8280    -7.3770    32.8470 ca         1 ZRR       0.147100
      4 C16          7.3170    -6.1410    33.2540 ca         1 ZRR      -0.190000
      5 C15          6.6800    -4.9820    32.8050 ca         1 ZRR      -0.065500
      6 C19          7.1560    -3.6690    33.2370 cc         1 ZRR       0.550500
      7 C27          1.0420    -4.9690    32.1410 c6         1 ZRR       0.161300
      8 C1           2.1030    -6.9780    29.4140 cc         1 ZRR      -0.241000
      9 N2           1.5270    -8.0500    28.7230 na         1 ZRR       0.273900
     10 N3           2.0970    -9.2800    28.5810 nc         1 ZRR      -0.300800
     11 C4           3.2580    -9.3800    29.1660 cd         1 ZRR       0.132900
     12 N5           3.9220    -8.4560    29.8950 nd         1 ZRR      -0.296000
     13 C6           3.3530    -7.2650    30.0470 cc         1 ZRR       0.446900
     14 C7           1.2210    -5.8970    29.3030 cd         1 ZRR      -0.112200
     15 C8           0.1210    -6.3560    28.5520 cd         1 ZRR      -0.249000
     16 C9           0.3330    -7.6820    28.2030 cc         1 ZRR      -0.167100
     17 C10          1.3800    -4.4820    29.7760 c3         1 ZRR       0.226000
     18 N11          3.9240    -6.2920    30.7870 nu         1 ZRR      -0.938900
     19 N12          1.9120    -4.3440    31.1360 n3         1 ZRR      -0.742600
     20 C14          5.5810    -5.0690    31.9580 ca         1 ZRR      -0.165000
     21 N20          8.2360    -3.4540    34.0250 nc         1 ZRR      -0.383000
     22 N21          8.3180    -2.1570    34.2010 nd         1 ZRR      -0.178800
     23 N22          7.3150    -1.6250    33.5330 na         1 ZRR       0.236600
     24 N23          6.5640    -2.5180    32.9170 nd         1 ZRR      -0.526800
     25 C25          7.1620     0.3260    32.0570 c3         1 ZRR      -0.106600
     26 C26          5.7020     0.1230    34.1320 c3         1 ZRR      -0.106600
     27 C28          1.6640    -4.8650    33.5270 c6         1 ZRR      -0.097400
     28 C29          1.9070    -3.4050    33.9190 c6         1 ZRR       0.155500
     29 C30          2.7310    -2.7230    32.8330 c6         1 ZRR      -0.097400
     30 C31          2.1360    -2.9260    31.4450 c6         1 ZRR       0.161300
     31 N32          2.5650    -3.2290    35.2200 n8         1 ZRR      -0.993200
     32 O33          7.4000    -8.5480    33.2500 oh         1 ZRR      -0.535100
     33 H1           5.3490    -8.4520    31.7300 ha         1 ZRR       0.164000
     34 H2           8.1740    -6.0800    33.9120 ha         1 ZRR       0.136000
     35 H3           7.8540     0.2470    34.0970 h1         1 ZRR       0.083700
     36 H5           0.8920    -6.0130    31.8670 h1         1 ZRR       0.042450
     37 H6           3.7420   -10.3440    29.0550 h5         1 ZRR       0.055100
     38 H8          -0.7440    -5.7700    28.2850 ha         1 ZRR       0.204000
     39 H9          -0.2590    -8.3790    27.6350 h4         1 ZRR       0.236000
     40 H10          2.0680    -3.9470    29.1140 h1         1 ZRR       0.047200
     41 H11          0.4050    -3.9820    29.6870 h1         1 ZRR       0.047200
     42 H12          3.3380    -5.4410    30.9130 hn         1 ZRR       0.559000
     43 H14          5.1040    -4.1720    31.5950 ha         1 ZRR       0.133000
     44 H15          7.0370     1.4090    32.0490 hc         1 ZRR       0.056200
     45 H16          8.1370     0.0830    31.6340 hc         1 ZRR       0.056200
     46 H17          6.3840    -0.1170    31.4350 hc         1 ZRR       0.056200
     47 H18          5.6550    -0.2740    35.1460 hc         1 ZRR       0.056200
     48 H19          5.5610     1.2030    34.1730 hc         1 ZRR       0.056200
     49 H20          4.8930    -0.3100    33.5450 hc         1 ZRR       0.056200
     50 H21          1.0080    -5.3450    34.2570 hc         1 ZRR       0.055450
     51 H22          2.6200    -5.3990    33.5380 hc         1 ZRR       0.055450
     52 H23          0.9340    -2.9050    33.9810 h1         1 ZRR       0.057700
     53 H24          3.7460    -3.1260    32.8620 hc         1 ZRR       0.055450
     54 H25          2.8050    -1.6530    33.0350 hc         1 ZRR       0.055450
     55 H26          2.8070    -2.5170    30.6870 h1         1 ZRR       0.042450
     56 H27          1.1840    -2.3770    31.3700 h1         1 ZRR       0.042450
     57 H28          2.0210    -3.6910    35.9430 hn         1 ZRR       0.395500
     58 H29          3.4660    -3.7030    35.2040 hn         1 ZRR       0.395500
     59 H31          8.1480    -8.3670    33.8370 ho         1 ZRR       0.465000
     60 C24          7.0530    -0.1760    33.4920 c3         1 ZRR       0.108300
     61 H4           0.0520    -4.4840    32.1350 h1         1 ZRR       0.042450
@<TRIPOS>BOND
     1     1     2 ar  
     2     1    18 1   
     3     1    20 ar  
     4     2     3 ar  
     5     2    33 1   
     6     3     4 ar  
     7     3    32 1   
     8     4     5 ar  
     9     4    34 1   
    10     5     6 1   
    11     5    20 ar  
    12     6    21 1   
    13     6    24 2   
    14     7    19 1   
    15     7    27 1   
    16     7    36 1   
    17     7    61 1   
    18     8     9 1   
    19     8    13 1   
    20     8    14 2   
    21     9    10 1   
    22     9    16 1   
    23    10    11 2   
    24    11    12 1   
    25    11    37 1   
    26    12    13 2   
    27    13    18 1   
    28    14    15 1   
    29    14    17 1   
    30    15    16 2   
    31    15    38 1   
    32    16    39 1   
    33    17    19 1   
    34    17    40 1   
    35    17    41 1   
    36    18    42 1   
    37    19    30 1   
    38    20    43 1   
    39    21    22 2   
    40    22    23 1   
    41    23    24 1   
    42    23    60 1   
    43    25    44 1   
    44    25    45 1   
    45    25    46 1   
    46    25    60 1   
    47    26    47 1   
    48    26    48 1   
    49    26    49 1   
    50    26    60 1   
    51    27    28 1   
    52    27    50 1   
    53    27    51 1   
    54    28    29 1   
    55    28    31 1   
    56    28    52 1   
    57    29    30 1   
    58    29    53 1   
    59    29    54 1   
    60    30    55 1   
    61    30    56 1   
    62    31    57 1   
    63    31    58 1   
    64    32    59 1   
    65    35    60 1   
@<TRIPOS>SUBSTRUCTURE
     1 ZRR         1 TEMP              0 ****  ****    0 ROOT
