@<TRIPOS>MOLECULE
ZRS
   20    21     1     0     0
SMALL
No Charge or Current Charge


@<TRIPOS>ATOM
      1 C02          4.5290     5.3350    17.1420 c          1 ZRS       0.714600
      2 C04          4.2620     3.9690    17.7550 ca         1 ZRS      -0.123600
      3 C05          4.9900     3.5260    18.8850 ca         1 ZRS      -0.081000
      4 C06          4.7430     2.2630    19.4510 ca         1 ZRS      -0.133500
      5 C07          3.7610     1.4160    18.9030 ca         1 ZRS      -0.044200
      6 C10          3.1150    -1.8000    19.8630 cc         1 ZRS       0.492900
      7 C12          3.1290     0.1040    20.7910 cd         1 ZRS       0.407400
      8 C13          3.0350     1.8460    17.7770 ca         1 ZRS      -0.133500
      9 C14          3.2800     3.1090    17.2090 ca         1 ZRS      -0.081000
     10 N08          3.5110     0.1620    19.4630 na         1 ZRS       0.068500
     11 N09          3.4860    -1.0480    18.8390 nd         1 ZRS      -0.530800
     12 N11          2.8820    -1.1700    21.0610 nc         1 ZRS      -0.727000
     13 O01          3.8760     5.6760    16.1650 o          1 ZRS      -0.712500
     14 O03          5.3870     6.0460    17.6470 o          1 ZRS      -0.712500
     15 H051         5.7550     4.1620    19.3280 ha         1 ZRS       0.135000
     16 H061         5.3210     1.9450    20.3160 ha         1 ZRS       0.106000
     17 H131         2.2750     1.2010    17.3410 ha         1 ZRS       0.106000
     18 H141         2.7030     3.4160    16.3400 ha         1 ZRS       0.135000
     19 H101         2.9790    -2.8740    19.8010 h5         1 ZRS       0.049100
     20 H121         3.0590     0.9650    21.4460 h5         1 ZRS       0.063100
@<TRIPOS>BOND
     1     1     2 1   
     2     1    13 1   
     3     1    14 1   
     4     2     3 ar  
     5     2     9 ar  
     6     3     4 ar  
     7     3    15 1   
     8     4     5 ar  
     9     4    16 1   
    10     5     8 ar  
    11     5    10 1   
    12     6    11 2   
    13     6    12 1   
    14     6    19 1   
    15     7    10 1   
    16     7    12 2   
    17     7    20 1   
    18     8     9 ar  
    19     8    17 1   
    20     9    18 1   
    21    10    11 1   
@<TRIPOS>SUBSTRUCTURE
     1 ZRS         1 TEMP              0 ****  ****    0 ROOT
