@<TRIPOS>MOLECULE
ZRS
   20    21     1     0     0
SMALL
bcc


@<TRIPOS>ATOM
      1 C02          4.5200     5.3070    17.0810 c          1 ZRS       0.925200
      2 C04          4.2500     3.9530    17.7360 ca         1 ZRS      -0.123600
      3 C05          4.8730     3.5980    18.9290 ca         1 ZRS      -0.099000
      4 C06          4.6280     2.3760    19.5350 ca         1 ZRS      -0.151500
      5 C07          3.7330     1.4910    18.9480 ca         1 ZRS      -0.044200
      6 C10          2.9420    -1.7430    19.7810 cc         1 ZRS       0.492900
      7 C12          3.4250    -0.0420    20.8790 cd         1 ZRS       0.407400
      8 C13          3.1060     1.8170    17.7530 ca         1 ZRS      -0.151500
      9 C14          3.3710     3.0400    17.1590 ca         1 ZRS      -0.099000
     10 N08          3.4530     0.2550    19.5700 na         1 ZRS       0.068500
     11 N09          3.1400    -0.8360    18.8580 nd         1 ZRS      -0.530800
     12 N11          3.1060    -1.3020    21.0470 nc         1 ZRS      -0.727000
     13 O01          3.8900     5.5470    16.0350 o          1 ZRS      -0.817800
     14 O03          5.3410     6.0460    17.6570 o          1 ZRS      -0.817800
     15 H051         5.5720     4.2830    19.3900 ha         1 ZRS       0.153000
     16 H061         5.1460     2.1140    20.4490 ha         1 ZRS       0.124000
     17 H131         2.4090     1.1270    17.2960 ha         1 ZRS       0.124000
     18 H141         2.8780     3.2940    16.2300 ha         1 ZRS       0.153000
     19 H101         2.6730    -2.7590    19.5340 h5         1 ZRS       0.049100
     20 H121         3.6210     0.6820    21.6550 h5         1 ZRS       0.063100
@<TRIPOS>BOND
     1     1     2 1   
     2     1    13 1   
     3     1    14 1   
     4     2     3 ar  
     5     2     9 ar  
     6     3     4 ar  
     7     3    15 1   
     8     4     5 ar  
     9     4    16 1   
    10     5     8 ar  
    11     5    10 1   
    12     6    11 2   
    13     6    12 1   
    14     6    19 1   
    15     7    10 1   
    16     7    12 2   
    17     7    20 1   
    18     8     9 ar  
    19     8    17 1   
    20     9    18 1   
    21    10    11 1   
@<TRIPOS>SUBSTRUCTURE
     1 ZRS         1 TEMP              0 ****  ****    0 ROOT
