@<TRIPOS>MOLECULE
ZRT
   77    81     1     0     0
SMALL
abcg2


@<TRIPOS>ATOM
      1 C10        -51.6280     2.6230    26.3710 ca         1 ZRT      -0.113500
      2 C01        -52.0880     5.5480    23.4100 c3         1 ZRT       0.151600
      3 C03        -50.0370     6.3880    24.3010 c3         1 ZRT       0.151600
      4 C05        -51.0230     2.8350    23.8260 cc         1 ZRT      -0.193300
      5 C06        -51.4060     2.0590    22.7720 cd         1 ZRT      -0.111000
      6 C09        -51.6490     2.2270    24.9580 cc         1 ZRT       0.350500
      7 C11        -50.5540     3.3260    26.9170 ca         1 ZRT      -0.077000
      8 C12        -50.5450     3.6730    28.2600 ca         1 ZRT      -0.121000
      9 C13        -51.6100     3.3280    29.0810 ca         1 ZRT      -0.104000
     10 C14        -52.6840     2.6270    28.5480 ca         1 ZRT      -0.121000
     11 C15        -52.6930     2.2770    27.2070 ca         1 ZRT      -0.077000
     12 C16        -52.8470     0.0800    22.5470 ca         1 ZRT       0.280500
     13 C18        -53.2190    -0.8530    20.5270 ca         1 ZRT       0.409900
     14 C20        -54.2950    -1.7330    22.3040 ca         1 ZRT       0.156900
     15 C21        -53.7050    -0.8210    23.1630 ca         1 ZRT      -0.262000
     16 C23        -52.1330    -0.2060    18.3690 ca         1 ZRT       0.318000
     17 C24        -51.6810    -0.8660    17.2100 ca         1 ZRT       0.070100
     18 C25        -50.8590    -0.1950    16.3230 ca         1 ZRT      -0.165000
     19 C26        -50.4530     1.1110    16.5710 ca         1 ZRT       0.170000
     20 C27        -50.8940     1.7690    17.7230 ca         1 ZRT      -0.003000
     21 C28        -51.7480     1.1070    18.6080 ca         1 ZRT      -0.129000
     22 C30        -50.6260     3.9620    18.8900 c          1 ZRT       0.607100
     23 C32        -49.8760     5.2640    18.6880 c3         1 ZRT      -0.158400
     24 C33        -50.1420     6.3010    19.7630 c3         1 ZRT      -0.077100
     25 C35        -50.2670     2.2110    14.4360 c6         1 ZRT       0.139300
     26 C36        -49.3430     3.1130    13.6400 c6         1 ZRT       0.150600
     27 C38        -47.4650     2.1230    14.5840 c6         1 ZRT       0.150600
     28 C39        -48.3240     1.1860    15.4120 c6         1 ZRT       0.139300
     29 C41        -51.7360    -2.8340    15.8790 c3         1 ZRT       0.153900
     30 N02        -50.9200     5.2470    24.2090 n3         1 ZRT      -0.711600
     31 N07        -52.1950     1.0730    23.2710 na         1 ZRT       0.104300
     32 N08        -52.3460     1.1710    24.5930 nd         1 ZRT      -0.523800
     33 N17        -52.5990     0.0710    21.2510 nb         1 ZRT      -0.274000
     34 N19        -54.0740    -1.7660    21.0020 nb         1 ZRT      -0.251000
     35 N22        -52.9980    -0.9280    19.1910 nu         1 ZRT      -0.921900
     36 N29        -50.4320     3.0760    17.8870 ns         1 ZRT      -0.143000
     37 N34        -49.6080     1.8210    15.6770 nh         1 ZRT      -0.782400
     38 O31        -51.3280     3.7480    19.8660 o          1 ZRT      -0.595100
     39 O37        -48.1050     2.4880    13.3830 os         1 ZRT      -0.446000
     40 O40        -52.1070    -2.1370    17.0510 os         1 ZRT      -0.354100
     41 H1         -52.7910     4.7140    23.4240 h1         1 ZRT       0.029867
     42 H2         -52.6010     6.4190    23.8200 h1         1 ZRT       0.029867
     43 H3         -51.8470     5.7630    22.3570 h1         1 ZRT       0.029867
     44 H4         -49.2020     6.1630    24.9660 h1         1 ZRT       0.029867
     45 H5         -49.6200     6.6960    23.3280 h1         1 ZRT       0.029867
     46 H6         -50.5730     7.2420    24.7160 h1         1 ZRT       0.029867
     47 H7         -49.2820     3.9830    24.2900 h1         1 ZRT       0.034700
     48 H8         -49.8990     4.2030    22.6670 h1         1 ZRT       0.034700
     49 H9         -51.1970     2.1520    21.7200 h4         1 ZRT       0.191000
     50 H10        -49.7040     3.5910    26.3040 ha         1 ZRT       0.118500
     51 H11        -49.6990     4.2130    28.6660 ha         1 ZRT       0.109500
     52 H12        -51.6030     3.6030    30.1280 ha         1 ZRT       0.109000
     53 H13        -53.5210     2.3550    29.1770 ha         1 ZRT       0.109500
     54 H14        -53.5400     1.7400    26.8010 ha         1 ZRT       0.118500
     55 H15        -54.9860    -2.4720    22.6940 h4         1 ZRT       0.026100
     56 H16        -53.9110    -0.8130    24.2200 ha         1 ZRT       0.163000
     57 H17        -50.5110    -0.6820    15.4210 ha         1 ZRT       0.121000
     58 H18        -52.1110     1.6110    19.4860 ha         1 ZRT       0.174000
     59 H19        -50.1330     5.6630    17.7020 hc         1 ZRT       0.057200
     60 H20        -49.5850     7.2120    19.5440 hc         1 ZRT       0.043367
     61 H21        -51.1980     6.5640    19.8200 hc         1 ZRT       0.043367
     62 H22        -51.1840     2.7540    14.6720 h1         1 ZRT       0.048450
     63 H23        -50.5460     1.3350    13.8320 h1         1 ZRT       0.048450
     64 H24        -49.1940     4.0530    14.1900 h1         1 ZRT       0.050700
     65 H25        -49.7940     3.3550    12.6770 h1         1 ZRT       0.050700
     66 H26        -46.5280     1.6310    14.3190 h1         1 ZRT       0.050700
     67 H27        -47.2210     3.0150    15.1780 h1         1 ZRT       0.050700
     68 H28        -48.4350     0.2280    14.8810 h1         1 ZRT       0.048450
     69 H29        -47.8220     0.9790    16.3600 h1         1 ZRT       0.048450
     70 H30        -52.1980    -3.8150    15.9440 h1         1 ZRT       0.042033
     71 H31        -52.0950    -2.3320    14.9770 h1         1 ZRT       0.042033
     72 H32        -50.6520    -2.9580    15.8080 h1         1 ZRT       0.042033
     73 H34        -53.4500    -1.7220    18.7610 hn         1 ZRT       0.528000
     74 H35        -49.8130     3.3450    17.1290 hn         1 ZRT       0.176000
     75 H33        -48.8060     5.0380    18.6400 hc         1 ZRT       0.057200
     76 H36        -49.8320     5.9520    20.7470 hc         1 ZRT       0.043367
     77 C04        -50.2090     4.0820    23.7190 c3         1 ZRT       0.250100
@<TRIPOS>BOND
     1     1     6 1   
     2     1     7 ar  
     3     1    11 ar  
     4     2    30 1   
     5     2    41 1   
     6     2    42 1   
     7     2    43 1   
     8     3    30 1   
     9     3    44 1   
    10     3    45 1   
    11     3    46 1   
    12     4     5 2   
    13     4     6 1   
    14     4    77 1   
    15     5    31 1   
    16     5    49 1   
    17     6    32 2   
    18     7     8 ar  
    19     7    50 1   
    20     8     9 ar  
    21     8    51 1   
    22     9    10 ar  
    23     9    52 1   
    24    10    11 ar  
    25    10    53 1   
    26    11    54 1   
    27    12    15 ar  
    28    12    31 1   
    29    12    33 ar  
    30    13    33 ar  
    31    13    34 ar  
    32    13    35 1   
    33    14    15 ar  
    34    14    34 ar  
    35    14    55 1   
    36    15    56 1   
    37    16    17 ar  
    38    16    21 ar  
    39    16    35 1   
    40    17    18 ar  
    41    17    40 1   
    42    18    19 ar  
    43    18    57 1   
    44    19    20 ar  
    45    19    37 1   
    46    20    21 ar  
    47    20    36 1   
    48    21    58 1   
    49    22    23 1   
    50    22    36 1   
    51    22    38 2   
    52    23    24 1   
    53    23    59 1   
    54    23    75 1   
    55    24    60 1   
    56    24    61 1   
    57    24    76 1   
    58    25    26 1   
    59    25    37 1   
    60    25    62 1   
    61    25    63 1   
    62    26    39 1   
    63    26    64 1   
    64    26    65 1   
    65    27    28 1   
    66    27    39 1   
    67    27    66 1   
    68    27    67 1   
    69    28    37 1   
    70    28    68 1   
    71    28    69 1   
    72    29    40 1   
    73    29    70 1   
    74    29    71 1   
    75    29    72 1   
    76    30    77 1   
    77    31    32 1   
    78    35    73 1   
    79    36    74 1   
    80    47    77 1   
    81    48    77 1   
@<TRIPOS>SUBSTRUCTURE
     1 ZRT         1 TEMP              0 ****  ****    0 ROOT
