@<TRIPOS>MOLECULE
ZRT
   77    81     1     0     0
SMALL
No Charge or Current Charge


@<TRIPOS>ATOM
      1 C10        -51.3510     2.3460    26.6590 ca         1 ZRT      -0.113500
      2 C01        -51.9670     5.6180    22.9620 c3         1 ZRT       0.151600
      3 C03        -50.1130     6.5090    24.3000 c3         1 ZRT       0.151600
      4 C05        -51.2770     2.8850    24.0860 cc         1 ZRT      -0.193300
      5 C06        -51.8300     2.2790    22.9920 cd         1 ZRT      -0.111000
      6 C09        -51.6470     2.0950    25.2240 cc         1 ZRT       0.350500
      7 C11        -50.9970     3.6210    27.1650 ca         1 ZRT      -0.077000
      8 C12        -50.7560     3.8200    28.5360 ca         1 ZRT      -0.121000
      9 C13        -50.8810     2.7550    29.4380 ca         1 ZRT      -0.104000
     10 C14        -51.2660     1.4930    28.9680 ca         1 ZRT      -0.121000
     11 C15        -51.5100     1.2940    27.5980 ca         1 ZRT      -0.077000
     12 C16        -53.1750     0.3350    22.6220 ca         1 ZRT       0.280500
     13 C18        -53.5500    -0.6460    20.5580 ca         1 ZRT       0.409900
     14 C20        -54.9640    -1.2570    22.2370 ca         1 ZRT       0.156900
     15 C21        -54.2790    -0.3990    23.1110 ca         1 ZRT      -0.262000
     16 C23        -52.2610    -0.1840    18.3690 ca         1 ZRT       0.318000
     17 C24        -51.7700    -0.9050    17.2510 ca         1 ZRT       0.070100
     18 C25        -50.8460    -0.2940    16.3760 ca         1 ZRT      -0.165000
     19 C26        -50.4140     1.0250    16.5980 ca         1 ZRT       0.170000
     20 C27        -50.9180     1.7560    17.6990 ca         1 ZRT      -0.003000
     21 C28        -51.8470     1.1460    18.5680 ca         1 ZRT      -0.129000
     22 C30        -50.7240     4.0720    18.8120 c          1 ZRT       0.607100
     23 C32        -49.9140     5.3630    18.6300 c3         1 ZRT      -0.158400
     24 C33        -50.7850     6.5110    18.0750 c3         1 ZRT      -0.077100
     25 C35        -50.0000     2.5120    14.6150 c6         1 ZRT       0.139300
     26 C36        -48.8730     3.4100    14.0210 c6         1 ZRT       0.150600
     27 C38        -47.1680     1.8650    14.7280 c6         1 ZRT       0.150600
     28 C39        -48.2280     0.9030    15.3460 c6         1 ZRT       0.139300
     29 C41        -51.7710    -3.0140    15.9450 c3         1 ZRT       0.153900
     30 N02        -51.0530     5.3840    24.1040 n3         1 ZRT      -0.711600
     31 N07        -52.5000     1.1840    23.5230 na         1 ZRT       0.104300
     32 N08        -52.3960     1.0500    24.8910 nd         1 ZRT      -0.523800
     33 N17        -52.8230     0.1830    21.3240 nb         1 ZRT      -0.274000
     34 N19        -54.5960    -1.3860    20.9510 nb         1 ZRT      -0.251000
     35 N22        -53.1810    -0.8080    19.2320 nu         1 ZRT      -0.921900
     36 N29        -50.4390     3.0850    17.8820 ns         1 ZRT      -0.143000
     37 N34        -49.4920     1.6220    15.7070 nh         1 ZRT      -0.782400
     38 O31        -51.5260     3.9480    19.7290 o          1 ZRT      -0.595100
     39 O37        -47.7350     2.6090    13.6240 os         1 ZRT      -0.446000
     40 O40        -52.2190    -2.2050    17.0480 os         1 ZRT      -0.354100
     41 H1         -52.7470     4.8480    22.9140 h1         1 ZRT       0.029867
     42 H2         -52.4690     6.5890    23.0620 h1         1 ZRT       0.029867
     43 H3         -51.4150     5.6140    22.0130 h1         1 ZRT       0.029867
     44 H4         -49.5040     6.3540    25.2010 h1         1 ZRT       0.029867
     45 H5         -49.4380     6.6090    23.4400 h1         1 ZRT       0.029867
     46 H6         -50.6590     7.4540    24.4220 h1         1 ZRT       0.029867
     47 H7         -49.6280     3.9870    24.8650 h1         1 ZRT       0.034700
     48 H8         -49.7670     4.0210    23.1190 h1         1 ZRT       0.034700
     49 H9         -51.7850     2.5230    21.9370 h4         1 ZRT       0.191000
     50 H10        -50.9440     4.4880    26.5220 ha         1 ZRT       0.118500
     51 H11        -50.4840     4.8080    28.8990 ha         1 ZRT       0.109500
     52 H12        -50.6950     2.9110    30.4990 ha         1 ZRT       0.109000
     53 H13        -51.3780     0.6650    29.6640 ha         1 ZRT       0.109500
     54 H14        -51.8040     0.3000    27.2690 ha         1 ZRT       0.118500
     55 H15        -55.8160    -1.8470    22.5690 h4         1 ZRT       0.026100
     56 H16        -54.5990    -0.3100    24.1460 ha         1 ZRT       0.163000
     57 H17        -50.4610    -0.8250    15.5130 ha         1 ZRT       0.121000
     58 H18        -52.2660     1.7000    19.3940 ha         1 ZRT       0.174000
     59 H19        -49.0840     5.1940    17.9330 hc         1 ZRT       0.057200
     60 H20        -50.1870     7.4230    17.9560 hc         1 ZRT       0.043367
     61 H21        -51.2030     6.2450    17.0970 hc         1 ZRT       0.043367
     62 H22        -50.8020     3.1630    14.9940 h1         1 ZRT       0.048450
     63 H23        -50.4300     1.9030    13.8070 h1         1 ZRT       0.048450
     64 H24        -48.5510     4.1490    14.7690 h1         1 ZRT       0.050700
     65 H25        -49.2530     3.9560    13.1460 h1         1 ZRT       0.050700
     66 H26        -46.3050     1.2870    14.3690 h1         1 ZRT       0.050700
     67 H27        -46.8120     2.5690    15.4940 h1         1 ZRT       0.050700
     68 H28        -48.4410     0.1040    14.6220 h1         1 ZRT       0.048450
     69 H29        -47.7930     0.4310    16.2390 h1         1 ZRT       0.048450
     70 H30        -52.2480    -4.0010    15.9800 h1         1 ZRT       0.042033
     71 H31        -52.0290    -2.5450    14.9870 h1         1 ZRT       0.042033
     72 H32        -50.6840    -3.1610    15.9850 h1         1 ZRT       0.042033
     73 H34        -53.5730    -1.6560    18.8210 hn         1 ZRT       0.528000
     74 H35        -49.7450     3.3470    17.1930 hn         1 ZRT       0.176000
     75 H33        -49.5200     5.6720    19.6050 hc         1 ZRT       0.057200
     76 H36        -51.6160     6.7340    18.7570 hc         1 ZRT       0.043367
     77 C04        -50.3550     4.0770    24.0470 c3         1 ZRT       0.250100
@<TRIPOS>BOND
     1     1     6 1   
     2     1     7 ar  
     3     1    11 ar  
     4     2    30 1   
     5     2    41 1   
     6     2    42 1   
     7     2    43 1   
     8     3    30 1   
     9     3    44 1   
    10     3    45 1   
    11     3    46 1   
    12     4     5 2   
    13     4     6 1   
    14     4    77 1   
    15     5    31 1   
    16     5    49 1   
    17     6    32 2   
    18     7     8 ar  
    19     7    50 1   
    20     8     9 ar  
    21     8    51 1   
    22     9    10 ar  
    23     9    52 1   
    24    10    11 ar  
    25    10    53 1   
    26    11    54 1   
    27    12    15 ar  
    28    12    31 1   
    29    12    33 ar  
    30    13    33 ar  
    31    13    34 ar  
    32    13    35 1   
    33    14    15 ar  
    34    14    34 ar  
    35    14    55 1   
    36    15    56 1   
    37    16    17 ar  
    38    16    21 ar  
    39    16    35 1   
    40    17    18 ar  
    41    17    40 1   
    42    18    19 ar  
    43    18    57 1   
    44    19    20 ar  
    45    19    37 1   
    46    20    21 ar  
    47    20    36 1   
    48    21    58 1   
    49    22    23 1   
    50    22    36 1   
    51    22    38 2   
    52    23    24 1   
    53    23    59 1   
    54    23    75 1   
    55    24    60 1   
    56    24    61 1   
    57    24    76 1   
    58    25    26 1   
    59    25    37 1   
    60    25    62 1   
    61    25    63 1   
    62    26    39 1   
    63    26    64 1   
    64    26    65 1   
    65    27    28 1   
    66    27    39 1   
    67    27    66 1   
    68    27    67 1   
    69    28    37 1   
    70    28    68 1   
    71    28    69 1   
    72    29    40 1   
    73    29    70 1   
    74    29    71 1   
    75    29    72 1   
    76    30    77 1   
    77    31    32 1   
    78    35    73 1   
    79    36    74 1   
    80    47    77 1   
    81    48    77 1   
@<TRIPOS>SUBSTRUCTURE
     1 ZRT         1 TEMP              0 ****  ****    0 ROOT
