@<TRIPOS>MOLECULE
ZRU
   45    48     1     0     0
SMALL
abcg2


@<TRIPOS>ATOM
      1 C1         -41.4270   -77.5540    -1.1080 c3         1 ZRU       0.166900
      2 C3         -39.5330   -77.3600    -2.5510 ca         1 ZRU       0.540300
      3 C5         -39.1200   -75.3810    -3.6170 ca         1 ZRU       0.346900
      4 C6         -38.0220   -75.9040    -4.2660 ca         1 ZRU      -0.169000
      5 C7         -37.6660   -77.2340    -4.0340 ca         1 ZRU      -0.077000
      6 C8         -38.4110   -77.9950    -3.1470 ca         1 ZRU       0.242000
      7 C11        -37.1580   -81.4490    -2.5290 cc         1 ZRU      -0.392000
      8 C12        -36.0430   -82.2630    -2.6130 cd         1 ZRU       0.443000
      9 N13        -35.9640   -83.5510    -2.2760 nu         1 ZRU      -0.957200
     10 C17        -32.9040   -81.3550    -3.7370 cc         1 ZRU       0.476500
     11 C18        -33.5520   -80.1130    -3.8960 cc         1 ZRU      -0.403800
     12 C19        -34.8710   -80.3420    -3.4690 cd         1 ZRU       0.502500
     13 C21        -32.9600   -78.8710    -4.3960 c          1 ZRU       0.657300
     14 C24        -33.3960   -76.5120    -4.8850 cx         1 ZRU       0.065700
     15 C25        -34.1130   -75.3180    -4.3380 cx         1 ZRU      -0.143400
     16 C26        -32.6680   -75.5570    -3.9770 cx         1 ZRU      -0.143400
     17 N23        -33.7850   -77.7970    -4.3940 ns         1 ZRU      -0.490900
     18 O22        -31.7890   -78.8110    -4.7950 o          1 ZRU      -0.627100
     19 N20        -35.9420   -79.5430    -3.3930 nd         1 ZRU      -0.807000
     20 N16        -33.7000   -82.3020    -3.2570 nd         1 ZRU      -0.622100
     21 N15        -34.9030   -81.6690    -3.0970 na         1 ZRU       0.028900
     22 C14        -37.0860   -84.3060    -1.7540 c3         1 ZRU       0.219100
     23 C10        -37.0640   -80.0950    -2.9290 cc         1 ZRU       0.708900
     24 N9         -38.1940   -79.3290    -2.8130 nu         1 ZRU      -0.922900
     25 N4         -39.8730   -76.1120    -2.7740 nb         1 ZRU      -0.728000
     26 O2         -40.2700   -78.1350    -1.7240 os         1 ZRU      -0.496300
     27 H1         -41.8580   -78.3460    -0.5020 h1         1 ZRU       0.049033
     28 H2         -41.1450   -76.7080    -0.4810 h1         1 ZRU       0.049033
     29 H3         -42.1390   -77.2220    -1.8630 h1         1 ZRU       0.049033
     30 H4         -39.4260   -74.3520    -3.7640 h4         1 ZRU       0.025100
     31 H5         -37.4430   -75.2960    -4.9470 ha         1 ZRU       0.131000
     32 H6         -36.8250   -77.6730    -4.5430 ha         1 ZRU       0.150000
     33 H7         -38.0910   -81.8460    -2.1610 ha         1 ZRU       0.138000
     34 H8         -35.0740   -84.0050    -2.4060 hn         1 ZRU       0.534000
     35 H9         -31.8740   -81.5840    -3.9590 h4         1 ZRU       0.063800
     36 H10        -33.1200   -76.4960    -5.9330 h1         1 ZRU       0.087700
     37 H11        -34.3520   -74.5160    -5.0230 hc         1 ZRU       0.074950
     38 H12        -34.8570   -75.4990    -3.5740 hc         1 ZRU       0.074950
     39 H13        -32.4560   -75.9040    -2.9750 hc         1 ZRU       0.074950
     40 H14        -31.9130   -74.9190    -4.4170 hc         1 ZRU       0.074950
     41 H15        -34.7350   -77.9390    -4.0740 hn         1 ZRU       0.341500
     42 H16        -36.7500   -85.3200    -1.5560 h1         1 ZRU       0.049367
     43 H17        -37.4540   -83.8690    -0.8230 h1         1 ZRU       0.049367
     44 H18        -37.9080   -84.3400    -2.4730 h1         1 ZRU       0.049367
     45 H19        -38.9650   -79.7610    -2.3250 hn         1 ZRU       0.518000
@<TRIPOS>BOND
     1     1    26 1   
     2     1    27 1   
     3     1    28 1   
     4     1    29 1   
     5     2     6 ar  
     6     2    25 ar  
     7     2    26 1   
     8     3     4 ar  
     9     3    25 ar  
    10     3    30 1   
    11     4     5 ar  
    12     4    31 1   
    13     5     6 ar  
    14     5    32 1   
    15     6    24 1   
    16     7     8 2   
    17     7    23 1   
    18     7    33 1   
    19     8     9 1   
    20     8    21 1   
    21     9    22 1   
    22     9    34 1   
    23    10    11 1   
    24    10    20 2   
    25    10    35 1   
    26    11    12 2   
    27    11    13 1   
    28    12    19 1   
    29    12    21 1   
    30    13    17 1   
    31    13    18 2   
    32    14    15 1   
    33    14    16 1   
    34    14    17 1   
    35    14    36 1   
    36    15    16 1   
    37    15    37 1   
    38    15    38 1   
    39    16    39 1   
    40    16    40 1   
    41    17    41 1   
    42    19    23 2   
    43    20    21 1   
    44    22    42 1   
    45    22    43 1   
    46    22    44 1   
    47    23    24 1   
    48    24    45 1   
@<TRIPOS>SUBSTRUCTURE
     1 ZRU         1 TEMP              0 ****  ****    0 ROOT
