@<TRIPOS>MOLECULE
ZRU
   45    48     1     0     0
SMALL
No Charge or Current Charge


@<TRIPOS>ATOM
      1 C1         -40.7670   -77.1920    -0.6170 c3         1 ZRU       0.166900
      2 C3         -39.3040   -77.2970    -2.6000 ca         1 ZRU       0.540300
      3 C5         -39.0620   -75.4230    -3.9470 ca         1 ZRU       0.346900
      4 C6         -38.1990   -76.1070    -4.8180 ca         1 ZRU      -0.169000
      5 C7         -37.8730   -77.4500    -4.5580 ca         1 ZRU      -0.077000
      6 C8         -38.4170   -78.0760    -3.4190 ca         1 ZRU       0.242000
      7 C11        -37.1080   -81.5130    -2.7490 cc         1 ZRU      -0.392000
      8 C12        -36.0130   -82.3440    -2.7090 cd         1 ZRU       0.443000
      9 N13        -36.0460   -83.6670    -2.3500 nu         1 ZRU      -0.957200
     10 C17        -32.8340   -81.2990    -3.5160 cc         1 ZRU       0.476500
     11 C18        -33.5530   -80.0970    -3.7110 cc         1 ZRU      -0.403800
     12 C19        -34.8410   -80.3960    -3.4200 cd         1 ZRU       0.502500
     13 C21        -32.9430   -78.8460    -4.1360 c          1 ZRU       0.657300
     14 C24        -33.4530   -76.4590    -4.6400 cx         1 ZRU       0.065700
     15 C25        -34.4660   -75.3700    -4.3850 cx         1 ZRU      -0.143400
     16 C26        -33.2130   -75.4470    -3.5470 cx         1 ZRU      -0.143400
     17 N23        -33.8100   -77.7920    -4.2490 ns         1 ZRU      -0.490900
     18 O22        -31.7500   -78.7390    -4.3720 o          1 ZRU      -0.627100
     19 N20        -35.8850   -79.5050    -3.4860 nd         1 ZRU      -0.807000
     20 N16        -33.5670   -82.3420    -3.1200 nd         1 ZRU      -0.622100
     21 N15        -34.8160   -81.7260    -3.0750 na         1 ZRU       0.028900
     22 C14        -37.2240   -84.4580    -1.9480 c3         1 ZRU       0.219100
     23 C10        -36.9770   -80.1480    -3.1420 cc         1 ZRU       0.708900
     24 N9         -38.1220   -79.4350    -3.1310 nu         1 ZRU      -0.922900
     25 N4         -39.6150   -76.0000    -2.8580 nb         1 ZRU      -0.728000
     26 O2         -39.8760   -77.9090    -1.4960 os         1 ZRU      -0.496300
     27 H1         -41.1100   -77.8460     0.1950 h1         1 ZRU       0.049033
     28 H2         -40.2630   -76.3280    -0.1650 h1         1 ZRU       0.049033
     29 H3         -41.6520   -76.8350    -1.1600 h1         1 ZRU       0.049033
     30 H4         -39.3250   -74.3830    -4.1320 h4         1 ZRU       0.025100
     31 H5         -37.7910   -75.5970    -5.6860 ha         1 ZRU       0.131000
     32 H6         -37.2180   -77.9960    -5.2310 ha         1 ZRU       0.150000
     33 H7         -38.0880   -81.8900    -2.4900 ha         1 ZRU       0.138000
     34 H8         -35.1290   -84.1230    -2.3840 hn         1 ZRU       0.534000
     35 H9         -31.7700   -81.4450    -3.6540 h4         1 ZRU       0.063800
     36 H10        -32.8460   -76.3980    -5.5450 h1         1 ZRU       0.087700
     37 H11        -34.5400   -74.5700    -5.1170 hc         1 ZRU       0.074950
     38 H12        -35.4060   -75.6430    -3.9110 hc         1 ZRU       0.074950
     39 H13        -33.3110   -75.7770    -2.5160 hc         1 ZRU       0.074950
     40 H14        -32.4430   -74.6990    -3.7150 hc         1 ZRU       0.074950
     41 H15        -34.7760   -78.0150    -4.0210 hn         1 ZRU       0.341500
     42 H16        -36.9350   -85.4930    -1.7210 h1         1 ZRU       0.049367
     43 H17        -37.6920   -84.0270    -1.0520 h1         1 ZRU       0.049367
     44 H18        -37.9700   -84.4780    -2.7550 h1         1 ZRU       0.049367
     45 H19        -38.7970   -79.8700    -2.5060 hn         1 ZRU       0.518000
@<TRIPOS>BOND
     1     1    26 1   
     2     1    27 1   
     3     1    28 1   
     4     1    29 1   
     5     2     6 ar  
     6     2    25 ar  
     7     2    26 1   
     8     3     4 ar  
     9     3    25 ar  
    10     3    30 1   
    11     4     5 ar  
    12     4    31 1   
    13     5     6 ar  
    14     5    32 1   
    15     6    24 1   
    16     7     8 2   
    17     7    23 1   
    18     7    33 1   
    19     8     9 1   
    20     8    21 1   
    21     9    22 1   
    22     9    34 1   
    23    10    11 1   
    24    10    20 2   
    25    10    35 1   
    26    11    12 2   
    27    11    13 1   
    28    12    19 1   
    29    12    21 1   
    30    13    17 1   
    31    13    18 2   
    32    14    15 1   
    33    14    16 1   
    34    14    17 1   
    35    14    36 1   
    36    15    16 1   
    37    15    37 1   
    38    15    38 1   
    39    16    39 1   
    40    16    40 1   
    41    17    41 1   
    42    19    23 2   
    43    20    21 1   
    44    22    42 1   
    45    22    43 1   
    46    22    44 1   
    47    23    24 1   
    48    24    45 1   
@<TRIPOS>SUBSTRUCTURE
     1 ZRU         1 TEMP              0 ****  ****    0 ROOT
