@<TRIPOS>MOLECULE
ZRV
   66    70     1     0     0
SMALL
abcg2


@<TRIPOS>ATOM
      1 C1         112.7660     3.0150   102.6120 c3         1 ZRV      -0.073400
      2 C2         113.8430     3.5040   101.6470 c3         1 ZRV      -0.099400
      3 C3         114.5820     4.7380   102.1540 c3         1 ZRV       0.103000
      4 C7         118.7930     7.3650    99.3630 ca         1 ZRV      -0.114000
      5 C8         118.6870     7.5400    97.9840 cp         1 ZRV       0.015000
      6 C9         117.4920     7.2070    97.3500 ca         1 ZRV      -0.154000
      7 C10        116.4320     6.7360    98.0980 ca         1 ZRV       0.222000
      8 C11        119.7840     8.1340    97.1960 cp         1 ZRV      -0.104000
      9 C12        119.5340     9.1820    96.3440 ca         1 ZRV      -0.023000
     10 C13        120.5540     9.8050    95.5970 ca         1 ZRV      -0.150000
     11 C14        121.8910     9.3960    95.8060 ca         1 ZRV       0.332000
     12 C15        122.1480     8.2890    96.6420 ca         1 ZRV      -0.154000
     13 C16        121.1170     7.6830    97.2910 ca         1 ZRV       0.211000
     14 C20        122.2460    14.1640    91.6010 cx         1 ZRV       0.048700
     15 C21        122.8710    14.0470    90.2500 cx         1 ZRV      -0.135900
     16 C22        121.3850    14.1930    90.3770 cx         1 ZRV      -0.135900
     17 C24        117.9630    10.4220    94.0860 ca         1 ZRV       0.277000
     18 C27        115.7690     8.7960    93.5040 ca         1 ZRV      -0.122000
     19 O1         120.2700    13.4790    93.3830 o          1 ZRV      -0.630100
     20 N2         122.2490    13.0050    92.4340 ns         1 ZRV      -0.472900
     21 C18        121.4210    11.5660    94.1870 ca         1 ZRV      -0.322600
     22 C23        120.3070    10.8920    94.6960 ca         1 ZRV       0.438000
     23 N3         119.0400    11.2750    94.3810 nu         1 ZRV      -0.978000
     24 C29        118.1550     9.1460    93.5560 ca         1 ZRV      -0.139500
     25 C28        117.0620     8.3380    93.2820 ca         1 ZRV      -0.089000
     26 C26        115.5790    10.0770    94.0020 ca         1 ZRV      -0.089000
     27 C25        116.6670    10.8850    94.3010 ca         1 ZRV      -0.139500
     28 C17        122.7010    11.0900    94.5360 ca         1 ZRV       0.414900
     29 N1         122.9510    10.0420    95.2700 nb         1 ZRV      -0.695000
     30 F1         121.3700     6.6170    98.0580 f          1 ZRV      -0.169000
     31 C6         117.7150     6.8870   100.0880 ca         1 ZRV      -0.067000
     32 F          115.3070     6.4070    97.4540 f          1 ZRV      -0.159000
     33 C5         116.5070     6.5650    99.4730 ca         1 ZRV      -0.193600
     34 C4         115.3140     6.1390   100.2720 c          1 ZRV       0.619700
     35 O          114.2100     6.6260   100.0790 o          1 ZRV      -0.581100
     36 N          115.5760     5.2300   101.2240 ns         1 ZRV      -0.504900
     37 C          113.3050     2.5310   103.9530 c3         1 ZRV      -0.092100
     38 H1         112.0350     3.8120   102.7740 hc         1 ZRV       0.042700
     39 H2         112.2190     2.1990   102.1330 hc         1 ZRV       0.042700
     40 H3         114.5640     2.7010   101.4650 hc         1 ZRV       0.047700
     41 H4         113.3860     3.7390   100.6830 hc         1 ZRV       0.047700
     42 H5         113.8720     5.5390   102.3620 h1         1 ZRV       0.054700
     43 H6         115.0980     4.5210   103.0890 h1         1 ZRV       0.054700
     44 H7         119.6980     7.6410    99.8850 ha         1 ZRV       0.129000
     45 H8         117.3850     7.3080    96.2760 ha         1 ZRV       0.141000
     46 H9         118.5230     9.5580    96.2940 ha         1 ZRV       0.138000
     47 H10        123.1660     7.9420    96.7660 ha         1 ZRV       0.153000
     48 H11        122.3820    15.1020    92.1290 h1         1 ZRV       0.093700
     49 H12        123.2580    13.0790    89.9570 hc         1 ZRV       0.078450
     50 H13        123.4500    14.8870    89.8920 hc         1 ZRV       0.078450
     51 H14        120.9290    15.1360    90.1060 hc         1 ZRV       0.078450
     52 H15        120.7760    13.3220    90.1740 hc         1 ZRV       0.078450
     53 H16        114.9200     8.1630    93.2830 ha         1 ZRV       0.121000
     54 H17        123.0220    12.3660    92.3440 hn         1 ZRV       0.322500
     55 H18        118.9820    12.2160    94.0040 hn         1 ZRV       0.537000
     56 H19        119.1540     8.7830    93.3520 ha         1 ZRV       0.124000
     57 H20        117.2250     7.3480    92.8770 ha         1 ZRV       0.118500
     58 H21        114.5780    10.4500    94.1740 ha         1 ZRV       0.118500
     59 H22        116.5140    11.8760    94.7100 ha         1 ZRV       0.124000
     60 H23        123.5780    11.6200    94.1750 h4         1 ZRV       0.014100
     61 H24        117.8090     6.7930   101.1630 ha         1 ZRV       0.121000
     62 H25        116.4860     4.7980   101.2440 hn         1 ZRV       0.315500
     63 H26        112.5090     2.1030   104.5620 hc         1 ZRV       0.031033
     64 H27        114.0660     1.7600   103.8130 hc         1 ZRV       0.031033
     65 H28        113.7570     3.3370   104.5320 hc         1 ZRV       0.031033
     66 C19        121.2610    12.7550    93.3080 c          1 ZRV       0.634700
@<TRIPOS>BOND
     1     1     2 1   
     2     1    37 1   
     3     1    38 1   
     4     1    39 1   
     5     2     3 1   
     6     2    40 1   
     7     2    41 1   
     8     3    36 1   
     9     3    42 1   
    10     3    43 1   
    11     4     5 ar  
    12     4    31 ar  
    13     4    44 1   
    14     5     6 ar  
    15     5     8 1   
    16     6     7 ar  
    17     6    45 1   
    18     7    32 1   
    19     7    33 ar  
    20     8     9 ar  
    21     8    13 ar  
    22     9    10 ar  
    23     9    46 1   
    24    10    11 ar  
    25    10    22 ar  
    26    11    12 ar  
    27    11    29 ar  
    28    12    13 ar  
    29    12    47 1   
    30    13    30 1   
    31    14    15 1   
    32    14    16 1   
    33    14    20 1   
    34    14    48 1   
    35    15    16 1   
    36    15    49 1   
    37    15    50 1   
    38    16    51 1   
    39    16    52 1   
    40    17    23 1   
    41    17    24 ar  
    42    17    27 ar  
    43    18    25 ar  
    44    18    26 ar  
    45    18    53 1   
    46    19    66 2   
    47    20    54 1   
    48    20    66 1   
    49    21    22 ar  
    50    21    28 ar  
    51    21    66 1   
    52    22    23 1   
    53    23    55 1   
    54    24    25 ar  
    55    24    56 1   
    56    25    57 1   
    57    26    27 ar  
    58    26    58 1   
    59    27    59 1   
    60    28    29 ar  
    61    28    60 1   
    62    31    33 ar  
    63    31    61 1   
    64    33    34 1   
    65    34    35 2   
    66    34    36 1   
    67    36    62 1   
    68    37    63 1   
    69    37    64 1   
    70    37    65 1   
@<TRIPOS>SUBSTRUCTURE
     1 ZRV         1 TEMP              0 ****  ****    0 ROOT
