@<TRIPOS>MOLECULE
ZRV
   66    70     1     0     0
SMALL
No Charge or Current Charge


@<TRIPOS>ATOM
      1 C1         113.1190     2.4930   102.7920 c3         1 ZRV      -0.073400
      2 C2         114.1860     3.2000   101.9240 c3         1 ZRV      -0.099400
      3 C3         114.4460     4.6710   102.3180 c3         1 ZRV       0.103000
      4 C7         118.6370     7.2400    99.3910 ca         1 ZRV      -0.114000
      5 C8         118.5400     7.5650    98.0200 cp         1 ZRV       0.015000
      6 C9         117.3090     7.3130    97.3740 ca         1 ZRV      -0.154000
      7 C10        116.2230     6.7490    98.0600 ca         1 ZRV       0.222000
      8 C11        119.6810     8.1780    97.2720 cp         1 ZRV      -0.104000
      9 C12        119.4490     9.2630    96.3960 ca         1 ZRV      -0.023000
     10 C13        120.4960     9.8550    95.6480 ca         1 ZRV      -0.150000
     11 C14        121.8150     9.3880    95.8210 ca         1 ZRV       0.332000
     12 C15        122.0550     8.3130    96.6870 ca         1 ZRV      -0.154000
     13 C16        121.0110     7.7080    97.3950 ca         1 ZRV       0.211000
     14 C20        122.3380    14.0870    91.4500 cx         1 ZRV       0.048700
     15 C21        123.4180    14.0760    90.3970 cx         1 ZRV      -0.135900
     16 C22        121.9820    13.8210    90.0080 cx         1 ZRV      -0.135900
     17 C24        117.8220    10.7360    94.0350 ca         1 ZRV       0.277000
     18 C27        115.4340     9.4930    93.1990 ca         1 ZRV      -0.122000
     19 O1         120.2590    13.4620    93.2480 o          1 ZRV      -0.630100
     20 N2         122.2870    12.9790    92.3650 ns         1 ZRV      -0.472900
     21 C18        121.3710    11.5300    94.1180 ca         1 ZRV      -0.322600
     22 C23        120.2730    10.9210    94.7450 ca         1 ZRV       0.438000
     23 N3         118.9900    11.3790    94.4460 nu         1 ZRV      -0.978000
     24 C29        117.8190     9.3760    93.6690 ca         1 ZRV      -0.139500
     25 C28        116.6270     8.7530    93.2570 ca         1 ZRV      -0.089000
     26 C26        115.4350    10.8540    93.5460 ca         1 ZRV      -0.089000
     27 C25        116.6300    11.4730    93.9590 ca         1 ZRV      -0.139500
     28 C17        122.6380    10.9960    94.3680 ca         1 ZRV       0.414900
     29 N1         122.8570     9.9490    95.1820 nb         1 ZRV      -0.695000
     30 F1         121.3000     6.6520    98.1890 f          1 ZRV      -0.169000
     31 C6         117.5550     6.6740   100.0870 ca         1 ZRV      -0.067000
     32 F          115.0900     6.5220    97.3580 f          1 ZRV      -0.159000
     33 C5         116.3240     6.4140    99.4320 ca         1 ZRV      -0.193600
     34 C4         115.1520     5.8060   100.1780 c          1 ZRV       0.619700
     35 O          114.0160     5.7670    99.7270 o          1 ZRV      -0.581100
     36 N          115.4250     5.3120   101.4370 ns         1 ZRV      -0.504900
     37 C          113.5140     2.3310   104.2750 c3         1 ZRV      -0.092100
     38 H1         112.1730     3.0450   102.7280 hc         1 ZRV       0.042700
     39 H2         112.9300     1.4980   102.3710 hc         1 ZRV       0.042700
     40 H3         115.1280     2.6400   101.9780 hc         1 ZRV       0.047700
     41 H4         113.8590     3.1650   100.8780 hc         1 ZRV       0.047700
     42 H5         113.5040     5.2360   102.2820 h1         1 ZRV       0.054700
     43 H6         114.8270     4.7170   103.3470 h1         1 ZRV       0.054700
     44 H7         119.5600     7.4420    99.9290 ha         1 ZRV       0.129000
     45 H8         117.1960     7.5450    96.3180 ha         1 ZRV       0.141000
     46 H9         118.4370     9.6520    96.3250 ha         1 ZRV       0.138000
     47 H10        123.0670     7.9410    96.8090 ha         1 ZRV       0.153000
     48 H11        122.0530    15.0480    91.8840 h1         1 ZRV       0.093700
     49 H12        124.1070    13.2350    90.3730 hc         1 ZRV       0.078450
     50 H13        123.8570    15.0310    90.1160 hc         1 ZRV       0.078450
     51 H14        121.4550    14.6030    89.4680 hc         1 ZRV       0.078450
     52 H15        121.7030    12.8070    89.7300 hc         1 ZRV       0.078450
     53 H16        114.5110     9.0130    92.8800 ha         1 ZRV       0.121000
     54 H17        123.0570    12.3230    92.3800 hn         1 ZRV       0.322500
     55 H18        119.0360    12.3530    94.1200 hn         1 ZRV       0.537000
     56 H19        118.7380     8.7980    93.6950 ha         1 ZRV       0.124000
     57 H20        116.6300     7.7010    92.9800 ha         1 ZRV       0.118500
     58 H21        114.5130    11.4300    93.4970 ha         1 ZRV       0.118500
     59 H22        116.6240    12.5250    94.2300 ha         1 ZRV       0.124000
     60 H23        123.5350    11.4180    93.9170 h4         1 ZRV       0.014100
     61 H24        117.6920     6.4610   101.1440 ha         1 ZRV       0.121000
     62 H25        116.3860     5.3630   101.7480 hn         1 ZRV       0.315500
     63 H26        112.7470     1.7590   104.8110 hc         1 ZRV       0.031033
     64 H27        114.4670     1.7950   104.3670 hc         1 ZRV       0.031033
     65 H28        113.6130     3.3050   104.7670 hc         1 ZRV       0.031033
     66 C19        121.2330    12.7200    93.2140 c          1 ZRV       0.634700
@<TRIPOS>BOND
     1     1     2 1   
     2     1    37 1   
     3     1    38 1   
     4     1    39 1   
     5     2     3 1   
     6     2    40 1   
     7     2    41 1   
     8     3    36 1   
     9     3    42 1   
    10     3    43 1   
    11     4     5 ar  
    12     4    31 ar  
    13     4    44 1   
    14     5     6 ar  
    15     5     8 1   
    16     6     7 ar  
    17     6    45 1   
    18     7    32 1   
    19     7    33 ar  
    20     8     9 ar  
    21     8    13 ar  
    22     9    10 ar  
    23     9    46 1   
    24    10    11 ar  
    25    10    22 ar  
    26    11    12 ar  
    27    11    29 ar  
    28    12    13 ar  
    29    12    47 1   
    30    13    30 1   
    31    14    15 1   
    32    14    16 1   
    33    14    20 1   
    34    14    48 1   
    35    15    16 1   
    36    15    49 1   
    37    15    50 1   
    38    16    51 1   
    39    16    52 1   
    40    17    23 1   
    41    17    24 ar  
    42    17    27 ar  
    43    18    25 ar  
    44    18    26 ar  
    45    18    53 1   
    46    19    66 2   
    47    20    54 1   
    48    20    66 1   
    49    21    22 ar  
    50    21    28 ar  
    51    21    66 1   
    52    22    23 1   
    53    23    55 1   
    54    24    25 ar  
    55    24    56 1   
    56    25    57 1   
    57    26    27 ar  
    58    26    58 1   
    59    27    59 1   
    60    28    29 ar  
    61    28    60 1   
    62    31    33 ar  
    63    31    61 1   
    64    33    34 1   
    65    34    35 2   
    66    34    36 1   
    67    36    62 1   
    68    37    63 1   
    69    37    64 1   
    70    37    65 1   
@<TRIPOS>SUBSTRUCTURE
     1 ZRV         1 TEMP              0 ****  ****    0 ROOT
