@<TRIPOS>MOLECULE
ZRY
   30    32     1     0     0
SMALL
No Charge or Current Charge


@<TRIPOS>ATOM
      1 N1          29.2750     3.5770    58.9830 n2         1 ZRY      -0.812100
      2 C7          26.0770     4.6430    58.4220 cc         1 ZRY       0.475400
      3 C8          24.5730     7.2210    56.2640 ca         1 ZRY       0.336000
      4 N2          25.2030     5.4170    57.8290 n2         1 ZRY      -0.423400
      5 C9          25.0220     8.1760    55.3340 ca         1 ZRY      -0.167000
      6 C1          26.9990     3.0520    59.7550 ca         1 ZRY      -0.200900
      7 C5          24.5850     3.1690    59.9600 ca         1 ZRY      -0.064000
      8 C6          25.7940     3.6090    59.4020 ca         1 ZRY      -0.103900
      9 N3          25.5150     6.3900    56.9000 nu         1 ZRY      -0.661300
     10 C4          24.6420     2.1230    60.9070 ca         1 ZRY      -0.099000
     11 C3          25.8850     1.5480    61.2710 ca         1 ZRY      -0.106000
     12 C2          27.0870     2.0110    60.6930 ca         1 ZRY      -0.070000
     13 N           27.4470     4.7140    58.1810 na         1 ZRY      -0.508600
     14 C           28.0030     3.7510    58.9880 cc         1 ZRY       0.569400
     15 C10         24.1070     9.0220    54.6800 ca         1 ZRY      -0.074000
     16 C11         22.7340     8.9150    54.9550 ca         1 ZRY      -0.152000
     17 C12         22.2750     7.9650    55.8820 ca         1 ZRY      -0.074000
     18 C13         23.1920     7.1210    56.5340 ca         1 ZRY      -0.167000
     19 H2          29.5000     2.8200    59.6440 hn         1 ZRY       0.398400
     20 H8          26.0820     8.2670    55.1140 ha         1 ZRY       0.119500
     21 H6          23.6370     3.6180    59.6720 ha         1 ZRY       0.136000
     22 H7          26.4810     6.5760    56.6060 hn         1 ZRY       0.483000
     23 H5          23.7230     1.7560    61.3600 ha         1 ZRY       0.119000
     24 H4          25.9140     0.7430    62.0010 ha         1 ZRY       0.119000
     25 H3          28.0450     1.5730    60.9690 ha         1 ZRY       0.121000
     26 H           27.9400     5.3260    57.5590 hn         1 ZRY       0.354000
     27 H9          24.4630     9.7580    53.9620 ha         1 ZRY       0.110000
     28 H10         22.0260     9.5680    54.4500 ha         1 ZRY       0.114000
     29 H11         21.2110     7.8810    56.0950 ha         1 ZRY       0.110000
     30 H12         22.8250     6.3900    57.2480 ha         1 ZRY       0.119500
@<TRIPOS>BOND
     1     1    14 2   
     2     1    19 1   
     3     2     4 2   
     4     2     8 1   
     5     2    13 1   
     6     3     5 ar  
     7     3     9 1   
     8     3    18 ar  
     9     4     9 1   
    10     5    15 ar  
    11     5    20 1   
    12     6     8 ar  
    13     6    12 ar  
    14     6    14 1   
    15     7     8 ar  
    16     7    10 ar  
    17     7    21 1   
    18     9    22 1   
    19    10    11 ar  
    20    10    23 1   
    21    11    12 ar  
    22    11    24 1   
    23    12    25 1   
    24    13    14 1   
    25    13    26 1   
    26    15    16 ar  
    27    15    27 1   
    28    16    17 ar  
    29    16    28 1   
    30    17    18 ar  
    31    17    29 1   
    32    18    30 1   
@<TRIPOS>SUBSTRUCTURE
     1 ZRY         1 TEMP              0 ****  ****    0 ROOT
