@<TRIPOS>MOLECULE
ZRY
   30    32     1     0     0
SMALL
bcc


@<TRIPOS>ATOM
      1 N1          29.3560     3.5320    59.0290 n2         1 ZRY      -0.812100
      2 C7          26.1340     4.7450    58.3590 cc         1 ZRY       0.475400
      3 C8          24.6130     7.1850    56.3140 ca         1 ZRY       0.197600
      4 N2          25.2580     5.4830    57.8030 n2         1 ZRY      -0.423400
      5 C9          24.9950     8.1280    55.3540 ca         1 ZRY      -0.185000
      6 C1          26.9850     3.0910    59.7240 ca         1 ZRY      -0.200900
      7 C5          24.5790     3.2990    59.8390 ca         1 ZRY      -0.082000
      8 C6          25.8020     3.7040    59.3280 ca         1 ZRY      -0.103900
      9 N3          25.5900     6.4210    56.9140 nu         1 ZRY      -0.467700
     10 C4          24.5760     2.2620    60.7610 ca         1 ZRY      -0.117000
     11 C3          25.7630     1.6460    61.1610 ca         1 ZRY      -0.124000
     12 C2          26.9850     2.0560    60.6440 ca         1 ZRY      -0.088000
     13 N           27.5140     4.7070    58.2210 na         1 ZRY      -0.458300
     14 C           28.1040     3.7360    59.0090 cc         1 ZRY       0.569400
     15 C10         24.0420     8.9160    54.7320 ca         1 ZRY      -0.092000
     16 C11         22.6940     8.7880    55.0490 ca         1 ZRY      -0.170000
     17 C12         22.3190     7.8510    56.0030 ca         1 ZRY      -0.092000
     18 C13         23.2590     7.0530    56.6370 ca         1 ZRY      -0.185000
     19 H2          29.5840     2.7790    59.6690 hn         1 ZRY       0.398400
     20 H8          26.0410     8.2400    55.0950 ha         1 ZRY       0.137500
     21 H6          23.6570     3.7740    59.5310 ha         1 ZRY       0.154000
     22 H7          26.5420     6.5480    56.6000 hn         1 ZRY       0.427800
     23 H5          23.6370     1.9230    61.1780 ha         1 ZRY       0.137000
     24 H4          25.7290     0.8400    61.8810 ha         1 ZRY       0.137000
     25 H3          27.9040     1.5750    60.9550 ha         1 ZRY       0.139000
     26 H           28.0710     5.3080    57.6360 hn         1 ZRY       0.303700
     27 H9          24.3590     9.6390    53.9910 ha         1 ZRY       0.128000
     28 H10         21.9530     9.4060    54.5610 ha         1 ZRY       0.132000
     29 H11         21.2740     7.7360    56.2650 ha         1 ZRY       0.128000
     30 H12         22.9450     6.3300    57.3770 ha         1 ZRY       0.137500
@<TRIPOS>BOND
     1     1    14 2   
     2     1    19 1   
     3     2     4 2   
     4     2     8 1   
     5     2    13 1   
     6     3     5 ar  
     7     3     9 1   
     8     3    18 ar  
     9     4     9 1   
    10     5    15 ar  
    11     5    20 1   
    12     6     8 ar  
    13     6    12 ar  
    14     6    14 1   
    15     7     8 ar  
    16     7    10 ar  
    17     7    21 1   
    18     9    22 1   
    19    10    11 ar  
    20    10    23 1   
    21    11    12 ar  
    22    11    24 1   
    23    12    25 1   
    24    13    14 1   
    25    13    26 1   
    26    15    16 ar  
    27    15    27 1   
    28    16    17 ar  
    29    16    28 1   
    30    17    18 ar  
    31    17    29 1   
    32    18    30 1   
@<TRIPOS>SUBSTRUCTURE
     1 ZRY         1 TEMP              0 ****  ****    0 ROOT
