@<TRIPOS>MOLECULE
ZRZ
   39    41     1     0     0
SMALL
No Charge or Current Charge


@<TRIPOS>ATOM
      1 C02         17.6980   169.0550    23.5680 c          1 ZRZ       0.715600
      2 C04         19.1130   169.4600    23.9440 ca         1 ZRZ      -0.144600
      3 C05         19.7640   168.8650    25.0500 ca         1 ZRZ      -0.040000
      4 C06         21.0860   169.2190    25.4030 ca         1 ZRZ      -0.184600
      5 C07         21.7450   170.2200    24.6550 ca         1 ZRZ      -0.116000
      6 C08         21.1100   170.8180    23.5570 ca         1 ZRZ      -0.155000
      7 C09         19.8080   170.4390    23.1970 ca         1 ZRZ      -0.069000
      8 C10         21.7270   168.5560    26.6050 c          1 ZRZ       0.622700
      9 C13         23.8000   167.8440    27.8500 c6         1 ZRZ       0.063000
     10 C14         25.3570   167.8420    27.8010 c6         1 ZRZ       0.152600
     11 C16         25.0310   167.0520    25.4610 c5         1 ZRZ       0.158000
     12 C17         25.9110   166.8840    24.1950 c5         1 ZRZ      -0.085900
     13 C18         24.9980   166.0430    23.2570 c5         1 ZRZ      -0.079900
     14 C19         24.1620   165.1430    24.2240 c5         1 ZRZ      -0.079900
     15 C20         24.6090   165.5650    25.6560 c5         1 ZRZ      -0.085900
     16 C21         23.8750   168.0940    25.3340 c6         1 ZRZ       0.086000
     17 N12         23.1220   168.3210    26.6070 n          1 ZRZ      -0.414800
     18 O01         17.1390   168.1950    24.2340 o          1 ZRZ      -0.715500
     19 O03         17.1670   169.6030    22.6120 o          1 ZRZ      -0.715500
     20 O11         21.0520   168.2840    27.5920 o          1 ZRZ      -0.605100
     21 O15         25.9290   167.4210    26.5350 os         1 ZRZ      -0.464000
     22 H1          19.2450   168.1100    25.6370 ha         1 ZRZ       0.142000
     23 H2          22.7370   170.5610    24.9380 ha         1 ZRZ       0.088000
     24 H3          21.6260   171.5860    22.9870 ha         1 ZRZ       0.089000
     25 H4          19.3350   170.9170    22.3410 ha         1 ZRZ       0.129000
     26 H5          23.4870   168.4780    28.6920 h1         1 ZRZ       0.054200
     27 H6          23.4480   166.8300    28.0800 h1         1 ZRZ       0.054200
     28 H7          25.7520   167.2010    28.6020 h1         1 ZRZ       0.040700
     29 H8          25.7120   168.8630    27.9990 h1         1 ZRZ       0.040700
     30 H9          26.8430   166.3500    24.4180 hc         1 ZRZ       0.052200
     31 H10         26.1910   167.8440    23.7460 hc         1 ZRZ       0.052200
     32 H11         25.5860   165.4500    22.5460 hc         1 ZRZ       0.046450
     33 H12         24.3420   166.6880    22.6600 hc         1 ZRZ       0.046450
     34 H13         23.0880   165.3130    24.0780 hc         1 ZRZ       0.046450
     35 H14         24.3370   164.0750    24.0470 hc         1 ZRZ       0.046450
     36 H15         23.7990   165.4300    26.3790 hc         1 ZRZ       0.052200
     37 H16         25.4510   164.9520    26.0000 hc         1 ZRZ       0.052200
     38 H17         24.3150   169.0470    25.0100 h1         1 ZRZ       0.062700
     39 H18         23.1780   167.7750    24.5460 h1         1 ZRZ       0.062700
@<TRIPOS>BOND
     1     1     2 1   
     2     1    18 1   
     3     1    19 1   
     4     2     3 ar  
     5     2     7 ar  
     6     3     4 ar  
     7     3    22 1   
     8     4     5 ar  
     9     4     8 1   
    10     5     6 ar  
    11     5    23 1   
    12     6     7 ar  
    13     6    24 1   
    14     7    25 1   
    15     8    17 1   
    16     8    20 2   
    17     9    10 1   
    18     9    17 1   
    19     9    26 1   
    20     9    27 1   
    21    10    21 1   
    22    10    28 1   
    23    10    29 1   
    24    11    12 1   
    25    11    15 1   
    26    11    16 1   
    27    11    21 1   
    28    12    13 1   
    29    12    30 1   
    30    12    31 1   
    31    13    14 1   
    32    13    32 1   
    33    13    33 1   
    34    14    15 1   
    35    14    34 1   
    36    14    35 1   
    37    15    36 1   
    38    15    37 1   
    39    16    17 1   
    40    16    38 1   
    41    16    39 1   
@<TRIPOS>SUBSTRUCTURE
     1 ZRZ         1 TEMP              0 ****  ****    0 ROOT
