@<TRIPOS>MOLECULE
ZRZ
   39    41     1     0     0
SMALL
abcg2


@<TRIPOS>ATOM
      1 C02         18.1350   168.4580    23.4550 c          1 ZRZ       0.715600
      2 C04         19.4120   169.1270    23.9630 ca         1 ZRZ      -0.144600
      3 C05         20.0930   168.6060    25.0580 ca         1 ZRZ      -0.040000
      4 C06         21.2700   169.1870    25.5170 ca         1 ZRZ      -0.184600
      5 C07         21.7660   170.3270    24.8890 ca         1 ZRZ      -0.116000
      6 C08         21.0830   170.8690    23.8110 ca         1 ZRZ      -0.155000
      7 C09         19.9190   170.2700    23.3500 ca         1 ZRZ      -0.069000
      8 C10         21.9190   168.6340    26.7440 c          1 ZRZ       0.622700
      9 C13         23.8970   167.9400    27.9280 c6         1 ZRZ       0.063000
     10 C14         25.3830   167.8040    27.6740 c6         1 ZRZ       0.152600
     11 C16         24.8460   166.9740    25.4870 c5         1 ZRZ       0.158000
     12 C17         25.7020   166.9130    24.2000 c5         1 ZRZ      -0.085900
     13 C18         25.0530   165.8620    23.2820 c5         1 ZRZ      -0.079900
     14 C19         23.6700   165.6030    23.8850 c5         1 ZRZ      -0.079900
     15 C20         23.9190   165.7530    25.3790 c5         1 ZRZ      -0.085900
     16 C21         24.0430   168.2770    25.4960 c6         1 ZRZ       0.086000
     17 N12         23.2450   168.3870    26.7040 n          1 ZRZ      -0.414800
     18 O01         17.7910   167.4130    24.0390 o          1 ZRZ      -0.715500
     19 O03         17.5590   169.0170    22.5030 o          1 ZRZ      -0.715500
     20 O11         21.2600   168.4480    27.7580 o          1 ZRZ      -0.605100
     21 O15         25.6700   166.8870    26.6430 os         1 ZRZ      -0.464000
     22 H1          19.7020   167.7260    25.5540 ha         1 ZRZ       0.142000
     23 H2          22.6740   170.7990    25.2440 ha         1 ZRZ       0.088000
     24 H3          21.4600   171.7620    23.3300 ha         1 ZRZ       0.089000
     25 H4          19.3930   170.6950    22.5060 ha         1 ZRZ       0.129000
     26 H5          23.7310   168.6600    28.7320 h1         1 ZRZ       0.054200
     27 H6          23.4840   166.9810    28.2580 h1         1 ZRZ       0.054200
     28 H7          25.8650   167.4310    28.5790 h1         1 ZRZ       0.040700
     29 H8          25.8160   168.7910    27.4640 h1         1 ZRZ       0.040700
     30 H9          26.7290   166.6490    24.4520 hc         1 ZRZ       0.052200
     31 H10         25.7440   167.8940    23.7180 hc         1 ZRZ       0.052200
     32 H11         25.6350   164.9380    23.3020 hc         1 ZRZ       0.046450
     33 H12         25.0060   166.1850    22.2420 hc         1 ZRZ       0.046450
     34 H13         22.9490   166.3480    23.5370 hc         1 ZRZ       0.046450
     35 H14         23.2680   164.6250    23.6190 hc         1 ZRZ       0.046450
     36 H15         23.0060   165.8460    25.9720 hc         1 ZRZ       0.052200
     37 H16         24.4580   164.8760    25.7490 hc         1 ZRZ       0.052200
     38 H17         24.7230   169.1300    25.4000 h1         1 ZRZ       0.062700
     39 H18         23.3990   168.2970    24.6190 h1         1 ZRZ       0.062700
@<TRIPOS>BOND
     1     1     2 1   
     2     1    18 1   
     3     1    19 1   
     4     2     3 ar  
     5     2     7 ar  
     6     3     4 ar  
     7     3    22 1   
     8     4     5 ar  
     9     4     8 1   
    10     5     6 ar  
    11     5    23 1   
    12     6     7 ar  
    13     6    24 1   
    14     7    25 1   
    15     8    17 1   
    16     8    20 2   
    17     9    10 1   
    18     9    17 1   
    19     9    26 1   
    20     9    27 1   
    21    10    21 1   
    22    10    28 1   
    23    10    29 1   
    24    11    12 1   
    25    11    15 1   
    26    11    16 1   
    27    11    21 1   
    28    12    13 1   
    29    12    30 1   
    30    12    31 1   
    31    13    14 1   
    32    13    32 1   
    33    13    33 1   
    34    14    15 1   
    35    14    34 1   
    36    14    35 1   
    37    15    36 1   
    38    15    37 1   
    39    16    17 1   
    40    16    38 1   
    41    16    39 1   
@<TRIPOS>SUBSTRUCTURE
     1 ZRZ         1 TEMP              0 ****  ****    0 ROOT
