@<TRIPOS>MOLECULE
ZS0
   28    30     1     0     0
SMALL
abcg2


@<TRIPOS>ATOM
      1 C1           2.6660     0.8820    -0.2370 cc         1 ZS0      -0.330600
      2 C2           1.5530     0.8170     0.5630 cd         1 ZS0       0.406900
      3 N3           1.3200     1.9910     1.1750 nd         1 ZS0      -0.699000
      4 C4           2.2930     2.7780     0.7530 cc         1 ZS0       0.452400
      5 N5           3.1240     2.1610    -0.0940 na         1 ZS0      -0.244500
      6 N6           2.2880    -1.3240    -0.7810 ns         1 ZS0      -0.411500
      7 C7           1.1790    -1.4360     0.0110 cs         1 ZS0       0.458400
      8 N8           0.8040    -0.3280     0.6950 n          1 ZS0      -0.285300
      9 C9           3.1240    -0.2300    -0.9970 c          1 ZS0       0.621600
     10 O10          4.0830    -0.2930    -1.7400 o          1 ZS0      -0.514000
     11 S11          0.3790    -2.8960     0.0980 s          1 ZS0      -0.577400
     12 C12         -0.3870    -0.3140     1.5490 c3         1 ZS0       0.159300
     13 C13         -1.6520    -0.0600     0.7730 ca         1 ZS0      -0.139300
     14 C14         -2.5950    -1.0690     0.6070 ca         1 ZS0      -0.054000
     15 C15         -3.7700    -0.8420    -0.0980 ca         1 ZS0      -0.161000
     16 C16         -3.9820     0.4110    -0.6380 ca         1 ZS0       0.185000
     17 C17         -3.0710     1.4390    -0.4910 ca         1 ZS0      -0.161000
     18 C18         -1.9070     1.1950     0.2230 ca         1 ZS0      -0.054000
     19 F19         -5.1120     0.6390    -1.3260 f          1 ZS0      -0.178000
     20 H5           3.9330     2.5680    -0.5380 hn         1 ZS0       0.381000
     21 H4           2.4260     3.8080     1.0420 h5         1 ZS0       0.070100
     22 H6           2.5320    -2.1700    -1.2810 hn         1 ZS0       0.364500
     23 H121        -0.4330    -1.2680     2.0710 h1         1 ZS0       0.089700
     24 H122        -0.2280     0.4650     2.2910 h1         1 ZS0       0.089700
     25 H14         -2.4130    -2.0480     1.0280 ha         1 ZS0       0.131000
     26 H18         -1.1970     2.0010     0.3590 ha         1 ZS0       0.131000
     27 H15         -4.5020    -1.6280    -0.2250 ha         1 ZS0       0.134000
     28 H17         -3.2670     2.4130    -0.9180 ha         1 ZS0       0.134000
@<TRIPOS>BOND
     1     1     2 2   
     2     1     5 1   
     3     1     9 1   
     4     2     3 1   
     5     2     8 1   
     6     3     4 2   
     7     4     5 1   
     8     4    21 1   
     9     5    20 1   
    10     6     7 1   
    11     6     9 1   
    12     6    22 1   
    13     7     8 1   
    14     7    11 2   
    15     8    12 1   
    16     9    10 2   
    17    12    13 1   
    18    12    23 1   
    19    12    24 1   
    20    13    14 ar  
    21    13    18 ar  
    22    14    15 ar  
    23    14    25 1   
    24    15    16 ar  
    25    15    27 1   
    26    16    17 ar  
    27    16    19 1   
    28    17    18 ar  
    29    17    28 1   
    30    18    26 1   
@<TRIPOS>SUBSTRUCTURE
     1 ZS0         1 TEMP              0 ****  ****    0 ROOT
