@<TRIPOS>MOLECULE
ZS0
   28    30     1     0     0
SMALL
No Charge or Current Charge


@<TRIPOS>ATOM
      1 C1           2.7010     0.8840    -0.2240 cc         1 ZS0      -0.330600
      2 C2           1.5980     0.8310     0.5670 cd         1 ZS0       0.406900
      3 N3           1.4130     2.0490     1.1900 nd         1 ZS0      -0.699000
      4 C4           2.3960     2.8390     0.7750 cc         1 ZS0       0.452400
      5 N5           3.2110     2.1640    -0.0970 na         1 ZS0      -0.244500
      6 N6           2.3070    -1.3400    -0.7920 ns         1 ZS0      -0.411500
      7 C7           1.1940    -1.4530    -0.0090 cs         1 ZS0       0.458400
      8 N8           0.8120    -0.3100     0.6920 n          1 ZS0      -0.285300
      9 C9           3.1220    -0.2750    -0.9890 c          1 ZS0       0.621600
     10 O10          4.0940    -0.3100    -1.7240 o          1 ZS0      -0.514000
     11 S11          0.4020    -2.9240     0.0450 s          1 ZS0      -0.577400
     12 C12         -0.3940    -0.2930     1.5520 c3         1 ZS0       0.159300
     13 C13         -1.6880    -0.0540     0.7770 ca         1 ZS0      -0.139300
     14 C14         -2.6180    -1.1000     0.6030 ca         1 ZS0      -0.054000
     15 C15         -3.8080    -0.8760    -0.1120 ca         1 ZS0      -0.161000
     16 C16         -4.0720     0.3900    -0.6520 ca         1 ZS0       0.185000
     17 C17         -3.1550     1.4370    -0.4820 ca         1 ZS0      -0.161000
     18 C18         -1.9640     1.2170     0.2320 ca         1 ZS0      -0.054000
     19 F19         -5.2160     0.6040    -1.3390 f          1 ZS0      -0.178000
     20 H5           4.0320     2.5540    -0.5490 hn         1 ZS0       0.381000
     21 H4           2.5660     3.8710     1.0600 h5         1 ZS0       0.070100
     22 H6           2.5710    -2.1700    -1.3000 hn         1 ZS0       0.364500
     23 H121        -0.4580    -1.2420     2.0990 h1         1 ZS0       0.089700
     24 H122        -0.2900     0.4870     2.3170 h1         1 ZS0       0.089700
     25 H14         -2.4200    -2.0860     1.0180 ha         1 ZS0       0.131000
     26 H18         -1.2570     2.0340     0.3620 ha         1 ZS0       0.131000
     27 H15         -4.5240    -1.6830    -0.2470 ha         1 ZS0       0.134000
     28 H17         -3.3670     2.4170    -0.9030 ha         1 ZS0       0.134000
@<TRIPOS>BOND
     1     1     2 2   
     2     1     5 1   
     3     1     9 1   
     4     2     3 1   
     5     2     8 1   
     6     3     4 2   
     7     4     5 1   
     8     4    21 1   
     9     5    20 1   
    10     6     7 1   
    11     6     9 1   
    12     6    22 1   
    13     7     8 1   
    14     7    11 2   
    15     8    12 1   
    16     9    10 2   
    17    12    13 1   
    18    12    23 1   
    19    12    24 1   
    20    13    14 ar  
    21    13    18 ar  
    22    14    15 ar  
    23    14    25 1   
    24    15    16 ar  
    25    15    27 1   
    26    16    17 ar  
    27    16    19 1   
    28    17    18 ar  
    29    17    28 1   
    30    18    26 1   
@<TRIPOS>SUBSTRUCTURE
     1 ZS0         1 TEMP              0 ****  ****    0 ROOT
