@<TRIPOS>MOLECULE
ZS1
   18    19     1     0     0
SMALL
No Charge or Current Charge


@<TRIPOS>ATOM
      1 N1          13.7140     3.4050    50.1900 nc         1 ZS1      -0.816000
      2 C7          15.3530     1.8030    49.8430 ca         1 ZS1      -0.214900
      3 N2          15.0580     5.0310    51.1150 n2         1 ZS1      -0.736100
      4 C1          14.9360     3.8620    50.6130 cc         1 ZS1       0.663900
      5 C5          17.4370     0.6070    49.7420 ca         1 ZS1      -0.111000
      6 C6          16.0460     0.6350    49.4930 ca         1 ZS1      -0.070000
      7 C4          18.0870     1.7260    50.3240 ca         1 ZS1      -0.099000
      8 C3          17.3550     2.8850    50.6640 ca         1 ZS1      -0.056000
      9 C2          15.9770     2.8780    50.4030 ca         1 ZS1      -0.139900
     10 N           12.9220     1.5350    49.2470 nv         1 ZS1      -1.030200
     11 C           13.9620     2.1930    49.7440 cd         1 ZS1       0.725800
     12 H2          14.1170     5.4430    51.1060 hn         1 ZS1       0.396400
     13 H5          18.0130    -0.2790    49.4860 ha         1 ZS1       0.116000
     14 H6          15.5370    -0.2180    49.0480 ha         1 ZS1       0.113000
     15 H4          19.1580     1.6910    50.5100 ha         1 ZS1       0.118000
     16 H3          17.8400     3.7500    51.1110 ha         1 ZS1       0.139000
     17 H1          12.1260     2.1240    49.0390 hn         1 ZS1       0.501000
     18 H           13.1270     0.8120    48.5680 hn         1 ZS1       0.501000
@<TRIPOS>BOND
     1     1     4 1   
     2     1    11 2   
     3     2     6 ar  
     4     2     9 ar  
     5     2    11 1   
     6     3     4 2   
     7     3    12 1   
     8     4     9 1   
     9     5     6 ar  
    10     5     7 ar  
    11     5    13 1   
    12     6    14 1   
    13     7     8 ar  
    14     7    15 1   
    15     8     9 ar  
    16     8    16 1   
    17    10    11 1   
    18    10    17 1   
    19    10    18 1   
@<TRIPOS>SUBSTRUCTURE
     1 ZS1         1 TEMP              0 ****  ****    0 ROOT
