@<TRIPOS>MOLECULE
ZS1
   18    19     1     0     0
SMALL
abcg2


@<TRIPOS>ATOM
      1 N1          13.7170     3.4640    50.1380 nc         1 ZS1      -0.816000
      2 C7          15.3400     1.8370    49.7910 ca         1 ZS1      -0.214900
      3 N2          15.1600     5.0650    51.1600 n2         1 ZS1      -0.736100
      4 C1          14.9310     3.9410    50.6190 cc         1 ZS1       0.663900
      5 C5          17.3850     0.6420    49.7290 ca         1 ZS1      -0.111000
      6 C6          16.0220     0.6880    49.4430 ca         1 ZS1      -0.070000
      7 C4          18.0250     1.7150    50.3430 ca         1 ZS1      -0.099000
      8 C3          17.3250     2.8690    50.6890 ca         1 ZS1      -0.056000
      9 C2          15.9760     2.9070    50.4020 ca         1 ZS1      -0.139900
     10 N           12.9970     1.5010    49.1200 nv         1 ZS1      -1.030200
     11 C           13.9300     2.2650    49.6610 cd         1 ZS1       0.725800
     12 H2          14.3030     5.6120    51.2030 hn         1 ZS1       0.396400
     13 H5          17.9550    -0.2400    49.4710 ha         1 ZS1       0.116000
     14 H6          15.5330    -0.1530    48.9660 ha         1 ZS1       0.113000
     15 H4          19.0850     1.6500    50.5530 ha         1 ZS1       0.118000
     16 H3          17.8250     3.7020    51.1660 ha         1 ZS1       0.139000
     17 H1          12.0480     1.8280    49.0410 hn         1 ZS1       0.501000
     18 H           13.2080     0.5900    48.7500 hn         1 ZS1       0.501000
@<TRIPOS>BOND
     1     1     4 1   
     2     1    11 2   
     3     2     6 ar  
     4     2     9 ar  
     5     2    11 1   
     6     3     4 2   
     7     3    12 1   
     8     4     9 1   
     9     5     6 ar  
    10     5     7 ar  
    11     5    13 1   
    12     6    14 1   
    13     7     8 ar  
    14     7    15 1   
    15     8     9 ar  
    16     8    16 1   
    17    10    11 1   
    18    10    17 1   
    19    10    18 1   
@<TRIPOS>SUBSTRUCTURE
     1 ZS1         1 TEMP              0 ****  ****    0 ROOT
