@<TRIPOS>MOLECULE
ZS2
   65    70     1     0     0
SMALL
abcg2


@<TRIPOS>ATOM
      1 O2           1.2690    -0.1390     2.1920 o          1 ZS2      -0.589100
      2 C22          2.1440    -0.1060     1.3400 c          1 ZS2       0.630300
      3 N4           2.3420    -1.1040     0.4510 ns         1 ZS2      -0.157000
      4 C23          1.6130    -2.3160     0.4290 ca         1 ZS2      -0.078000
      5 C29          2.2970    -3.5100     0.4220 ca         1 ZS2      -0.061000
      6 C28          1.5590    -4.6980     0.3420 ca         1 ZS2      -0.224900
      7 C27          1.8620    -6.0850     0.3040 cc         1 ZS2       0.351800
      8 N6           0.7650    -6.7980     0.2370 nd         1 ZS2      -0.516100
      9 N5          -0.2550    -5.9390     0.2290 na         1 ZS2      -0.059400
     10 C26          0.1560    -4.6520     0.2900 ca         1 ZS2      -0.043200
     11 C25         -0.5450    -3.4400     0.2970 ca         1 ZS2      -0.113000
     12 C24          0.1990    -2.2880     0.3620 ca         1 ZS2      -0.060000
     13 C2           3.0030     1.0930     1.1640 ce         1 ZS2      -0.292400
     14 C3           2.2550     2.3950     0.9960 c6         1 ZS2       0.243200
     15 N            3.1040     3.5050     1.3480 ns         1 ZS2      -0.506900
     16 C4           4.4510     3.5200     1.2600 c          1 ZS2       0.613000
     17 O            5.1270     4.5290     1.3840 o          1 ZS2      -0.579000
     18 N1           5.0250     2.2890     1.0460 ns         1 ZS2      -0.425100
     19 C1           4.3430     1.0880     1.1560 c2         1 ZS2       0.108400
     20 C            5.2340    -0.1040     1.2890 c3         1 ZS2      -0.080900
     21 C5           1.7120     2.4700    -0.4240 ca         1 ZS2      -0.144300
     22 C10          0.5900     1.7160    -0.7450 ca         1 ZS2      -0.057000
     23 C9           0.1020     1.6310    -2.0450 ca         1 ZS2      -0.196600
     24 C8           0.7540     2.3680    -3.0250 ca         1 ZS2       0.228000
     25 F            0.2980     2.3480    -4.2810 f          1 ZS2      -0.155000
     26 C7           1.8470     3.1570    -2.7330 ca         1 ZS2      -0.166000
     27 C6           2.3320     3.1940    -1.4330 ca         1 ZS2      -0.051000
     28 C11         -1.0170     0.6970    -2.3770 c          1 ZS2       0.620700
     29 O1          -1.0040     0.0060    -3.3830 o          1 ZS2      -0.577100
     30 N2          -1.9940     0.6340    -1.4570 ns         1 ZS2      -0.508900
     31 C12         -3.0760    -0.3290    -1.5460 c3         1 ZS2       0.050700
     32 C13         -3.7470    -0.4570    -0.2040 ca         1 ZS2       0.347300
     33 C21         -4.6650     0.5340     0.2480 ca         1 ZS2      -0.087000
     34 C16         -5.2280     0.3700     1.5370 ca         1 ZS2      -0.014000
     35 C15         -4.8480    -0.7650     2.2850 ca         1 ZS2      -0.135000
     36 C14         -3.9640    -1.6500     1.7420 ca         1 ZS2       0.327900
     37 N3          -3.4200    -1.4980     0.5160 nb         1 ZS2      -0.668000
     38 C20         -5.0310     1.6640    -0.5210 ca         1 ZS2      -0.091000
     39 C19         -5.9150     2.5820    -0.0220 ca         1 ZS2      -0.107000
     40 C18         -6.4720     2.4170     1.2630 ca         1 ZS2      -0.090000
     41 C17         -6.1380     1.3340     2.0280 ca         1 ZS2      -0.102000
     42 H1           3.0630    -0.9840    -0.2440 hn         1 ZS2       0.158000
     43 H2           3.3790    -3.5280     0.4730 ha         1 ZS2       0.116000
     44 H3           2.8290    -6.5630     0.3260 h4         1 ZS2       0.048800
     45 H5          -1.6240    -3.3860     0.2430 ha         1 ZS2       0.142000
     46 H6          -0.3200    -1.3400     0.3450 ha         1 ZS2       0.130000
     47 H7           1.4030     2.4040     1.6810 h1         1 ZS2       0.089700
     48 H8           2.6610     4.3960     1.5120 hn         1 ZS2       0.337500
     49 H9           6.0330     2.2700     1.0790 hn         1 ZS2       0.337500
     50 H10          5.7780    -0.2770     0.3580 hc         1 ZS2       0.063367
     51 H11          5.9730     0.0670     2.0730 hc         1 ZS2       0.063367
     52 H12          4.6880    -1.0090     1.5370 hc         1 ZS2       0.063367
     53 H13          0.0880     1.1610     0.0390 ha         1 ZS2       0.130000
     54 H14          2.3180     3.7370    -3.5150 ha         1 ZS2       0.138000
     55 H15          3.1970     3.8100    -1.2260 ha         1 ZS2       0.126000
     56 H16         -2.0240     1.3230    -0.7220 hn         1 ZS2       0.323500
     57 H17         -3.7930    -0.0420    -2.3200 h1         1 ZS2       0.071200
     58 H18         -2.6710    -1.3010    -1.8220 h1         1 ZS2       0.071200
     59 H19         -5.2540    -0.9290     3.2750 ha         1 ZS2       0.127000
     60 H20         -3.6530    -2.5310     2.2900 h4         1 ZS2       0.023100
     61 H21         -4.6200     1.8140    -1.5100 ha         1 ZS2       0.123000
     62 H22         -6.1930     3.4420    -0.6170 ha         1 ZS2       0.119000
     63 H23         -7.1680     3.1540     1.6420 ha         1 ZS2       0.118000
     64 H24         -6.5640     1.2010     3.0150 ha         1 ZS2       0.121000
     65 H4          -1.1990    -6.2840     0.1740 hn         1 ZS2       0.377000
@<TRIPOS>BOND
     1     1     2 2   
     2     2     3 1   
     3     2    13 1   
     4     3     4 1   
     5     3    42 1   
     6     4     5 ar  
     7     4    12 ar  
     8     5     6 ar  
     9     5    43 1   
    10     6     7 1   
    11     6    10 ar  
    12     7     8 2   
    13     7    44 1   
    14     8     9 1   
    15     9    10 1   
    16     9    65 1   
    17    10    11 ar  
    18    11    12 ar  
    19    11    45 1   
    20    12    46 1   
    21    13    14 1   
    22    13    19 2   
    23    14    15 1   
    24    14    21 1   
    25    14    47 1   
    26    15    16 1   
    27    15    48 1   
    28    16    17 2   
    29    16    18 1   
    30    18    19 1   
    31    18    49 1   
    32    19    20 1   
    33    20    50 1   
    34    20    51 1   
    35    20    52 1   
    36    21    22 ar  
    37    21    27 ar  
    38    22    23 ar  
    39    22    53 1   
    40    23    24 ar  
    41    23    28 1   
    42    24    25 1   
    43    24    26 ar  
    44    26    27 ar  
    45    26    54 1   
    46    27    55 1   
    47    28    29 2   
    48    28    30 1   
    49    30    31 1   
    50    30    56 1   
    51    31    32 1   
    52    31    57 1   
    53    31    58 1   
    54    32    33 ar  
    55    32    37 ar  
    56    33    34 ar  
    57    33    38 ar  
    58    34    35 ar  
    59    34    41 ar  
    60    35    36 ar  
    61    35    59 1   
    62    36    37 ar  
    63    36    60 1   
    64    38    39 ar  
    65    38    61 1   
    66    39    40 ar  
    67    39    62 1   
    68    40    41 ar  
    69    40    63 1   
    70    41    64 1   
@<TRIPOS>SUBSTRUCTURE
     1 ZS2         1 TEMP              0 ****  ****    0 ROOT
