@<TRIPOS>MOLECULE
ZS2
   65    70     1     0     0
SMALL
No Charge or Current Charge


@<TRIPOS>ATOM
      1 O2           0.7340    -0.8430     0.6430 o          1 ZS2      -0.589100
      2 C22          1.9330    -0.7180     0.8610 c          1 ZS2       0.630300
      3 N4           2.7790    -1.8120     0.9850 ns         1 ZS2      -0.157000
      4 C23          2.5670    -3.2150     0.8660 ca         1 ZS2      -0.078000
      5 C29          3.6340    -4.0640     1.2480 ca         1 ZS2      -0.061000
      6 C28          3.4480    -5.4480     1.1340 ca         1 ZS2      -0.224900
      7 C27          4.3100    -6.5650     1.4310 cc         1 ZS2       0.351800
      8 N6           3.7120    -7.7380     1.1620 nd         1 ZS2      -0.516100
      9 N5           2.4490    -7.3560     0.6850 na         1 ZS2      -0.059400
     10 C26          2.2940    -5.9860     0.6700 ca         1 ZS2      -0.043200
     11 C25          1.2140    -5.1920     0.2720 ca         1 ZS2      -0.113000
     12 C24          1.3580    -3.7900     0.3720 ca         1 ZS2      -0.060000
     13 C2           2.5550     0.6520     1.0290 ce         1 ZS2      -0.292400
     14 C3           1.5710     1.8080     0.7890 c6         1 ZS2       0.243200
     15 N            2.1130     3.0910     1.2340 ns         1 ZS2      -0.506900
     16 C4           3.4180     3.3510     1.5270 c          1 ZS2       0.613000
     17 O            3.8190     4.4720     1.7750 o          1 ZS2      -0.579000
     18 N1           4.2380     2.2620     1.5260 ns         1 ZS2      -0.425100
     19 C1           3.8470     0.9320     1.3530 c2         1 ZS2       0.108400
     20 C            5.0110    -0.0120     1.6190 c3         1 ZS2      -0.080900
     21 C5           1.2090     1.9370    -0.6950 ca         1 ZS2      -0.144300
     22 C10         -0.1330     1.8160    -1.1090 ca         1 ZS2      -0.057000
     23 C9          -0.4910     1.9250    -2.4770 ca         1 ZS2      -0.196600
     24 C8           0.5360     2.1710    -3.4190 ca         1 ZS2       0.228000
     25 F            0.2710     2.2690    -4.7410 f          1 ZS2      -0.155000
     26 C7           1.8720     2.2880    -3.0080 ca         1 ZS2      -0.166000
     27 C6           2.2120     2.1700    -1.6530 ca         1 ZS2      -0.051000
     28 C11         -1.9320     1.7920    -2.9170 c          1 ZS2       0.620700
     29 O1          -2.3520     2.2120    -3.9850 o          1 ZS2      -0.577100
     30 N2          -2.7840     1.1960    -2.0130 ns         1 ZS2      -0.508900
     31 C12         -4.2320     1.0130    -2.2200 c3         1 ZS2       0.050700
     32 C13         -4.9990     0.7190    -0.9260 ca         1 ZS2       0.347300
     33 C21         -5.2390     1.7150     0.0590 ca         1 ZS2      -0.087000
     34 C16         -5.9460     1.3480     1.2260 ca         1 ZS2      -0.014000
     35 C15         -6.3780     0.0190     1.3610 ca         1 ZS2      -0.135000
     36 C14         -6.0920    -0.8980     0.3400 ca         1 ZS2       0.327900
     37 N3          -5.4170    -0.5640    -0.7820 nb         1 ZS2      -0.668000
     38 C20         -4.7960     3.0520    -0.0820 ca         1 ZS2      -0.091000
     39 C19         -5.0610     3.9950     0.9260 ca         1 ZS2      -0.107000
     40 C18         -5.7670     3.6190     2.0810 ca         1 ZS2      -0.090000
     41 C17         -6.2100     2.2950     2.2310 ca         1 ZS2      -0.102000
     42 H1           3.7360    -1.5680     1.1920 hn         1 ZS2       0.158000
     43 H2           4.5720    -3.6590     1.6230 ha         1 ZS2       0.116000
     44 H3           5.3200    -6.5950     1.8210 h4         1 ZS2       0.048800
     45 H5           0.2940    -5.6360    -0.1040 ha         1 ZS2       0.142000
     46 H6           0.5270    -3.1700     0.0530 ha         1 ZS2       0.130000
     47 H7           0.6560     1.6240     1.3740 h1         1 ZS2       0.089700
     48 H8           1.4980     3.8930     1.2330 hn         1 ZS2       0.337500
     49 H9           5.2070     2.4580     1.7400 hn         1 ZS2       0.337500
     50 H10          5.2390    -0.6180     0.7340 hc         1 ZS2       0.063367
     51 H11          5.9340     0.5220     1.8780 hc         1 ZS2       0.063367
     52 H12          4.7930    -0.6830     2.4570 hc         1 ZS2       0.063367
     53 H13         -0.8920     1.6480    -0.3480 ha         1 ZS2       0.130000
     54 H14          2.6480     2.4670    -3.7480 ha         1 ZS2       0.138000
     55 H15          3.2530     2.2610    -1.3490 ha         1 ZS2       0.126000
     56 H16         -2.3670     0.8300    -1.1660 hn         1 ZS2       0.323500
     57 H17         -4.6520     1.9140    -2.6860 h1         1 ZS2       0.071200
     58 H18         -4.3780     0.1860    -2.9280 h1         1 ZS2       0.071200
     59 H19         -6.9240    -0.3060     2.2410 ha         1 ZS2       0.127000
     60 H20         -6.4140    -1.9360     0.4220 h4         1 ZS2       0.023100
     61 H21         -4.2460     3.3740    -0.9620 ha         1 ZS2       0.123000
     62 H22         -4.7170     5.0210     0.8120 ha         1 ZS2       0.119000
     63 H23         -5.9690     4.3530     2.8580 ha         1 ZS2       0.118000
     64 H24         -6.7550     2.0080     3.1280 ha         1 ZS2       0.121000
     65 H4           1.7550    -8.0440     0.3940 hn         1 ZS2       0.377000
@<TRIPOS>BOND
     1     1     2 2   
     2     2     3 1   
     3     2    13 1   
     4     3     4 1   
     5     3    42 1   
     6     4     5 ar  
     7     4    12 ar  
     8     5     6 ar  
     9     5    43 1   
    10     6     7 1   
    11     6    10 ar  
    12     7     8 2   
    13     7    44 1   
    14     8     9 1   
    15     9    10 1   
    16     9    65 1   
    17    10    11 ar  
    18    11    12 ar  
    19    11    45 1   
    20    12    46 1   
    21    13    14 1   
    22    13    19 2   
    23    14    15 1   
    24    14    21 1   
    25    14    47 1   
    26    15    16 1   
    27    15    48 1   
    28    16    17 2   
    29    16    18 1   
    30    18    19 1   
    31    18    49 1   
    32    19    20 1   
    33    20    50 1   
    34    20    51 1   
    35    20    52 1   
    36    21    22 ar  
    37    21    27 ar  
    38    22    23 ar  
    39    22    53 1   
    40    23    24 ar  
    41    23    28 1   
    42    24    25 1   
    43    24    26 ar  
    44    26    27 ar  
    45    26    54 1   
    46    27    55 1   
    47    28    29 2   
    48    28    30 1   
    49    30    31 1   
    50    30    56 1   
    51    31    32 1   
    52    31    57 1   
    53    31    58 1   
    54    32    33 ar  
    55    32    37 ar  
    56    33    34 ar  
    57    33    38 ar  
    58    34    35 ar  
    59    34    41 ar  
    60    35    36 ar  
    61    35    59 1   
    62    36    37 ar  
    63    36    60 1   
    64    38    39 ar  
    65    38    61 1   
    66    39    40 ar  
    67    39    62 1   
    68    40    41 ar  
    69    40    63 1   
    70    41    64 1   
@<TRIPOS>SUBSTRUCTURE
     1 ZS2         1 TEMP              0 ****  ****    0 ROOT
