@<TRIPOS>MOLECULE
ZS3
   51    55     1     0     0
SMALL
No Charge or Current Charge


@<TRIPOS>ATOM
      1 C2          12.4110   -39.8740    28.5950 ca         1 ZS3       0.154000
      2 C3          13.4190   -40.5460    29.3040 ca         1 ZS3      -0.109000
      3 C4          14.5730   -40.9410    28.6010 ca         1 ZS3      -0.131000
      4 C5          14.6760   -40.6530    27.2270 ca         1 ZS3       0.333900
      5 C7          12.5930   -39.6250    27.2110 ca         1 ZS3       0.407900
      6 C11          9.5430   -37.9070    24.8440 cc         1 ZS3      -0.116000
      7 C12         10.1270   -37.0780    25.7870 cd         1 ZS3       0.026800
      8 N13          9.7430   -35.7420    25.9500 nu         1 ZS3      -0.779900
      9 C15          8.7530   -33.6230    25.7380 cc         1 ZS3      -0.387000
     10 C16          7.6840   -32.7890    25.5040 cd         1 ZS3       0.441000
     11 C18          8.9190   -30.5730    25.7870 c3         1 ZS3       0.219100
     12 C21          4.5230   -33.9450    24.7930 cc         1 ZS3       0.476500
     13 C23          6.4900   -34.8310    25.2360 cd         1 ZS3       0.505500
     14 O26          3.4030   -36.6160    24.5400 o          1 ZS3      -0.626100
     15 C30          5.8720   -39.9480    25.7310 cx         1 ZS3       0.113300
     16 C32         11.2500   -37.5910    26.6570 c          1 ZS3       0.550200
     17 F31          6.9920   -39.5410    26.3970 f          1 ZS3      -0.239000
     18 C29          4.5240   -39.5620    26.2860 cx         1 ZS3      -0.149400
     19 C28          5.0190   -38.9270    25.0090 cx         1 ZS3       0.051700
     20 N27          5.4090   -37.5410    25.0620 ns         1 ZS3      -0.491900
     21 C22          5.2110   -35.1700    24.9550 cc         1 ZS3      -0.409800
     22 N24          7.5060   -35.7290    25.4520 nd         1 ZS3      -0.808000
     23 N20          5.2670   -32.8500    24.9560 nd         1 ZS3      -0.622100
     24 N19          6.4910   -33.4570    25.2310 na         1 ZS3       0.028900
     25 N17          7.7400   -31.4190    25.5250 nu         1 ZS3      -0.958200
     26 C14          8.6060   -35.0430    25.6850 cc         1 ZS3       0.710900
     27 O33         11.8240   -36.8930    27.4900 o          1 ZS3      -0.573000
     28 C10          9.9800   -39.2680    24.7080 cc         1 ZS3      -0.250000
     29 C9          10.9870   -39.7600    25.5070 cd         1 ZS3      -0.040400
     30 N8          11.6050   -38.9310    26.4460 n          1 ZS3      -0.262500
     31 N6          13.7080   -40.0070    26.5340 nb         1 ZS3      -0.653000
     32 F1          11.2790   -39.4920    29.2360 f          1 ZS3      -0.150000
     33 H1          13.3070   -40.7560    30.3650 ha         1 ZS3       0.145000
     34 H2          15.3800   -41.4630    29.1070 ha         1 ZS3       0.134000
     35 H3          15.5600   -40.9500    26.6640 h4         1 ZS3       0.033100
     36 H4           8.7570   -37.5490    24.1870 ha         1 ZS3       0.217000
     37 H5          10.3990   -35.1840    26.4920 hn         1 ZS3       0.526000
     38 H6           9.7280   -33.2070    25.9530 ha         1 ZS3       0.141000
     39 H7           8.6500   -29.5090    25.7320 h1         1 ZS3       0.049700
     40 H8           9.3240   -30.7730    26.7890 h1         1 ZS3       0.049700
     41 H9           9.7070   -30.7670    25.0480 h1         1 ZS3       0.049700
     42 H10          3.4730   -33.8200    24.5590 h4         1 ZS3       0.061800
     43 H11          5.9940   -40.9350    25.2840 h1         1 ZS3       0.086700
     44 H12          4.5040   -38.9530    27.1860 hc         1 ZS3       0.091700
     45 H13          3.7210   -40.2890    26.2090 hc         1 ZS3       0.091700
     46 H14          4.5530   -39.2270    24.0700 h1         1 ZS3       0.090700
     47 H15          6.3650   -37.2900    25.3070 hn         1 ZS3       0.353500
     48 H16          6.8410   -30.9700    25.3230 hn         1 ZS3       0.534000
     49 H17          9.5020   -39.9050    23.9650 ha         1 ZS3       0.204000
     50 H18         11.3640   -40.7810    25.4610 h4         1 ZS3       0.214000
     51 C25          4.5820   -36.4760    24.8280 c          1 ZS3       0.663300
@<TRIPOS>BOND
     1     1     2 ar  
     2     1     5 ar  
     3     1    32 1   
     4     2     3 ar  
     5     2    33 1   
     6     3     4 ar  
     7     3    34 1   
     8     4    31 ar  
     9     4    35 1   
    10     5    30 1   
    11     5    31 ar  
    12     6     7 2   
    13     6    28 1   
    14     6    36 1   
    15     7     8 1   
    16     7    16 1   
    17     8    26 1   
    18     8    37 1   
    19     9    10 2   
    20     9    26 1   
    21     9    38 1   
    22    10    24 1   
    23    10    25 1   
    24    11    25 1   
    25    11    39 1   
    26    11    40 1   
    27    11    41 1   
    28    12    21 1   
    29    12    23 2   
    30    12    42 1   
    31    13    21 2   
    32    13    22 1   
    33    13    24 1   
    34    14    51 2   
    35    15    17 1   
    36    15    18 1   
    37    15    19 1   
    38    15    43 1   
    39    16    27 2   
    40    16    30 1   
    41    18    19 1   
    42    18    44 1   
    43    18    45 1   
    44    19    20 1   
    45    19    46 1   
    46    20    47 1   
    47    20    51 1   
    48    21    51 1   
    49    22    26 2   
    50    23    24 1   
    51    25    48 1   
    52    28    29 2   
    53    28    49 1   
    54    29    30 1   
    55    29    50 1   
@<TRIPOS>SUBSTRUCTURE
     1 ZS3         1 TEMP              0 ****  ****    0 ROOT
