@<TRIPOS>MOLECULE
ZS3
   51    55     1     0     0
SMALL
abcg2


@<TRIPOS>ATOM
      1 C2          12.6530   -39.4510    28.5500 ca         1 ZS3       0.154000
      2 C3          13.7170   -39.9780    29.2530 ca         1 ZS3      -0.109000
      3 C4          14.7130   -40.6220    28.5290 ca         1 ZS3      -0.131000
      4 C5          14.5890   -40.7060    27.1480 ca         1 ZS3       0.333900
      5 C7          12.6110   -39.5610    27.1660 ca         1 ZS3       0.407900
      6 C11          9.3310   -38.0930    25.0280 cc         1 ZS3      -0.116000
      7 C12         10.0950   -37.2110    25.7440 cd         1 ZS3       0.026800
      8 N13          9.9210   -35.8390    25.8460 nu         1 ZS3      -0.779900
      9 C15          8.9220   -33.6800    25.8010 cc         1 ZS3      -0.387000
     10 C16          7.8100   -32.8760    25.6190 cd         1 ZS3       0.441000
     11 C18          8.9110   -30.7300    26.0480 c3         1 ZS3       0.219100
     12 C21          4.6070   -33.9260    24.8520 cc         1 ZS3       0.476500
     13 C23          6.5810   -34.9010    25.1960 cd         1 ZS3       0.505500
     14 O26          3.4280   -36.6340    24.3970 o          1 ZS3      -0.626100
     15 C30          5.6560   -39.9020    25.7150 cx         1 ZS3       0.113300
     16 C32         11.2780   -37.6690    26.4590 c          1 ZS3       0.550200
     17 F31          6.5640   -39.4150    26.6410 f          1 ZS3      -0.239000
     18 C29          4.2270   -39.5480    25.9130 cx         1 ZS3      -0.149400
     19 C28          5.0300   -38.9090    24.7900 cx         1 ZS3       0.051700
     20 N27          5.4440   -37.5540    24.9180 ns         1 ZS3      -0.491900
     21 C22          5.2370   -35.1870    24.8990 cc         1 ZS3      -0.409800
     22 N24          7.6490   -35.6890    25.3580 nd         1 ZS3      -0.808000
     23 N20          5.4350   -32.9190    25.0970 nd         1 ZS3      -0.622100
     24 N19          6.6420   -33.5290    25.3070 na         1 ZS3       0.028900
     25 N17          7.7600   -31.5470    25.7130 nu         1 ZS3      -0.958200
     26 C14          8.7980   -35.0810    25.6560 cc         1 ZS3       0.710900
     27 O33         12.0530   -36.9020    27.0430 o          1 ZS3      -0.573000
     28 C10          9.6500   -39.4710    25.0180 cc         1 ZS3      -0.250000
     29 C9          10.7160   -39.9220    25.7200 cd         1 ZS3      -0.040400
     30 N8          11.4980   -39.0400    26.4320 n          1 ZS3      -0.262500
     31 N6          13.5580   -40.1800    26.4820 nb         1 ZS3      -0.653000
     32 F1          11.6460   -38.8520    29.2070 f          1 ZS3      -0.150000
     33 H1          13.7500   -39.8930    30.3310 ha         1 ZS3       0.145000
     34 H2          15.5670   -41.0560    29.0300 ha         1 ZS3       0.134000
     35 H3          15.3410   -41.2090    26.5530 h4         1 ZS3       0.033100
     36 H4           8.4840   -37.7360    24.4670 ha         1 ZS3       0.217000
     37 H5          10.7190   -35.3710    26.2580 hn         1 ZS3       0.526000
     38 H6           9.8760   -33.2390    26.0450 ha         1 ZS3       0.141000
     39 H7           8.5940   -29.6910    26.0690 h1         1 ZS3       0.049700
     40 H8           9.3100   -30.9970    27.0290 h1         1 ZS3       0.049700
     41 H9           9.7030   -30.8430    25.3050 h1         1 ZS3       0.049700
     42 H10          3.5660   -33.7260    24.6510 h4         1 ZS3       0.061800
     43 H11          5.9590   -40.8730    25.3490 h1         1 ZS3       0.086700
     44 H12          4.0060   -38.9040    26.7530 hc         1 ZS3       0.091700
     45 H13          3.4710   -40.2810    25.6640 hc         1 ZS3       0.091700
     46 H14          4.8270   -39.2470    23.7800 h1         1 ZS3       0.090700
     47 H15          6.4050   -37.3530    25.1720 hn         1 ZS3       0.353500
     48 H16          6.8650   -31.1100    25.5560 hn         1 ZS3       0.534000
     49 H17          9.0380   -40.1680    24.4650 ha         1 ZS3       0.204000
     50 H18         11.0110   -40.9570    25.7770 h4         1 ZS3       0.214000
     51 C25          4.6160   -36.4980    24.7120 c          1 ZS3       0.663300
@<TRIPOS>BOND
     1     1     2 ar  
     2     1     5 ar  
     3     1    32 1   
     4     2     3 ar  
     5     2    33 1   
     6     3     4 ar  
     7     3    34 1   
     8     4    31 ar  
     9     4    35 1   
    10     5    30 1   
    11     5    31 ar  
    12     6     7 2   
    13     6    28 1   
    14     6    36 1   
    15     7     8 1   
    16     7    16 1   
    17     8    26 1   
    18     8    37 1   
    19     9    10 2   
    20     9    26 1   
    21     9    38 1   
    22    10    24 1   
    23    10    25 1   
    24    11    25 1   
    25    11    39 1   
    26    11    40 1   
    27    11    41 1   
    28    12    21 1   
    29    12    23 2   
    30    12    42 1   
    31    13    21 2   
    32    13    22 1   
    33    13    24 1   
    34    14    51 2   
    35    15    17 1   
    36    15    18 1   
    37    15    19 1   
    38    15    43 1   
    39    16    27 2   
    40    16    30 1   
    41    18    19 1   
    42    18    44 1   
    43    18    45 1   
    44    19    20 1   
    45    19    46 1   
    46    20    47 1   
    47    20    51 1   
    48    21    51 1   
    49    22    26 2   
    50    23    24 1   
    51    25    48 1   
    52    28    29 2   
    53    28    49 1   
    54    29    30 1   
    55    29    50 1   
@<TRIPOS>SUBSTRUCTURE
     1 ZS3         1 TEMP              0 ****  ****    0 ROOT
