@<TRIPOS>MOLECULE
ZS4
   51    55     1     0     0
SMALL
abcg2


@<TRIPOS>ATOM
      1 CAQ         -0.6380    -3.6930     0.7710 c6         1 ZS4       0.186800
      2 CAR         -0.5920    -4.7070    -0.3600 c6         1 ZS4       0.132100
      3 OAW          0.5710    -5.5030    -0.2900 os         1 ZS4      -0.443000
      4 CBB          1.7420    -4.7170    -0.3360 c6         1 ZS4       0.132100
      5 CBA          1.7780    -3.7010     0.7950 c6         1 ZS4       0.186800
      6 NAV          0.5730    -2.8930     0.7460 nh         1 ZS4      -0.763800
      7 CAU          0.5850    -1.5760     0.5030 ca         1 ZS4       0.470400
      8 NAP         -0.6040    -0.9580     0.3630 nb         1 ZS4      -0.344500
      9 NAT          1.7580    -0.9540     0.4390 nb         1 ZS4      -0.368000
     10 CAS          1.7190     0.3520     0.1890 ca         1 ZS4       0.470400
     11 NAY          2.8780     1.0210     0.1160 nh         1 ZS4      -0.763800
     12 CAZ          2.9610     2.4530    -0.1050 c6         1 ZS4       0.186800
     13 CAI          3.9880     2.7420    -1.1870 c6         1 ZS4       0.132100
     14 OBD          5.2400     2.1700    -0.8860 os         1 ZS4      -0.443000
     15 CBC          5.1370     0.7710    -0.7380 c6         1 ZS4       0.132100
     16 CAX          4.1640     0.3940     0.3650 c6         1 ZS4       0.186800
     17 NAN          0.5810     1.0450    -0.0110 nb         1 ZS4      -0.344500
     18 CAO         -0.5070     0.3230     0.1070 ca         1 ZS4       0.332500
     19 NAJ         -1.7200     1.0020    -0.0800 na         1 ZS4      -0.184100
     20 CAK         -2.9120     0.4540    -0.5350 ca         1 ZS4      -0.038200
     21 CAL         -3.2920    -0.8260    -0.9250 ca         1 ZS4      -0.091000
     22 CAM         -4.5930    -0.9810    -1.3710 ca         1 ZS4      -0.098000
     23 CAH         -5.4910     0.0930    -1.4310 ca         1 ZS4      -0.130000
     24 CAG         -5.1050     1.3640    -1.0500 ca         1 ZS4      -0.045000
     25 CAF         -3.7980     1.5360    -0.6010 ca         1 ZS4       0.061400
     26 NAE         -3.1740     2.6890    -0.1840 nc         1 ZS4      -0.526100
     27 CAD         -1.9650     2.3460     0.1080 cd         1 ZS4       0.362800
     28 CAC         -0.9650     3.3180     0.6660 c3         1 ZS4       0.191000
     29 FA          -1.5770     4.5140     0.8120 f          1 ZS4      -0.106000
     30 FB          -0.5850     2.9080     1.9060 f          1 ZS4      -0.106000
     31 HAQ1        -1.5150    -3.0580     0.6830 h1         1 ZS4       0.074200
     32 HAQ2        -0.6930    -4.2100     1.7340 h1         1 ZS4       0.074200
     33 HAR1        -1.4520    -5.3760    -0.2960 h1         1 ZS4       0.056700
     34 HAR2        -0.6420    -4.1780    -1.3230 h1         1 ZS4       0.056700
     35 HBB1         2.5930    -5.3930    -0.2550 h1         1 ZS4       0.056700
     36 HBB2         1.8150    -4.1890    -1.2970 h1         1 ZS4       0.056700
     37 HBA1         1.8180    -4.2130     1.7610 h1         1 ZS4       0.074200
     38 HBA2         2.6580    -3.0690     0.7100 h1         1 ZS4       0.074200
     39 HAZ1         1.9940     2.8400    -0.4120 h1         1 ZS4       0.074200
     40 HAZ2         3.2460     2.9490     0.8290 h1         1 ZS4       0.074200
     41 HAX1         4.5470     0.7300     1.3350 h1         1 ZS4       0.074200
     42 HAX2         4.0500    -0.6850     0.4050 h1         1 ZS4       0.074200
     43 HAI1         3.6140     2.3700    -2.1510 h1         1 ZS4       0.056700
     44 HAI2         4.1320     3.8200    -1.2740 h1         1 ZS4       0.056700
     45 HBC1         4.8180     0.3030    -1.6800 h1         1 ZS4       0.056700
     46 HBC2         6.1310     0.3920    -0.4940 h1         1 ZS4       0.056700
     47 HAL         -2.6120    -1.6620    -0.8850 ha         1 ZS4       0.134000
     48 HAM         -4.9250    -1.9630    -1.6800 ha         1 ZS4       0.112000
     49 HAH         -6.4990    -0.0790    -1.7840 ha         1 ZS4       0.117000
     50 HAG         -5.7870     2.2030    -1.0990 ha         1 ZS4       0.133000
     51 HAC         -0.0820     3.4450     0.0460 h2         1 ZS4       0.086700
@<TRIPOS>BOND
     1     1     2 1   
     2     1     6 1   
     3     1    31 1   
     4     1    32 1   
     5     2     3 1   
     6     2    33 1   
     7     2    34 1   
     8     3     4 1   
     9     4     5 1   
    10     4    35 1   
    11     4    36 1   
    12     5     6 1   
    13     5    37 1   
    14     5    38 1   
    15     6     7 1   
    16     7     8 ar  
    17     7     9 ar  
    18     8    18 ar  
    19     9    10 ar  
    20    10    11 1   
    21    10    17 ar  
    22    11    12 1   
    23    11    16 1   
    24    12    13 1   
    25    12    39 1   
    26    12    40 1   
    27    13    14 1   
    28    13    43 1   
    29    13    44 1   
    30    14    15 1   
    31    15    16 1   
    32    15    45 1   
    33    15    46 1   
    34    16    41 1   
    35    16    42 1   
    36    17    18 ar  
    37    18    19 1   
    38    19    20 1   
    39    19    27 1   
    40    20    21 ar  
    41    20    25 ar  
    42    21    22 ar  
    43    21    47 1   
    44    22    23 ar  
    45    22    48 1   
    46    23    24 ar  
    47    23    49 1   
    48    24    25 ar  
    49    24    50 1   
    50    25    26 1   
    51    26    27 2   
    52    27    28 1   
    53    28    29 1   
    54    28    30 1   
    55    28    51 1   
@<TRIPOS>SUBSTRUCTURE
     1 ZS4         1 TEMP              0 ****  ****    0 ROOT
