@<TRIPOS>MOLECULE
ZS4
   51    55     1     0     0
SMALL
No Charge or Current Charge


@<TRIPOS>ATOM
      1 CAQ         -0.8250    -3.3910     1.0340 c6         1 ZS4       0.186800
      2 CAR         -0.8510    -4.9420     0.9120 c6         1 ZS4       0.132100
      3 OAW          0.3420    -5.5270     1.4780 os         1 ZS4      -0.443000
      4 CBB          1.5410    -5.0790     0.8090 c6         1 ZS4       0.132100
      5 CBA          1.7020    -3.5350     0.9260 c6         1 ZS4       0.186800
      6 NAV          0.4580    -2.7800     0.5280 nh         1 ZS4      -0.763800
      7 CAU          0.5220    -1.4110     0.1640 ca         1 ZS4       0.470400
      8 NAP         -0.6360    -0.7370     0.0640 nb         1 ZS4      -0.344500
      9 NAT          1.7300    -0.8780    -0.0570 nb         1 ZS4      -0.368000
     10 CAS          1.7240     0.4170    -0.3960 ca         1 ZS4       0.470400
     11 NAY          2.9730     1.0410    -0.6430 nh         1 ZS4      -0.763800
     12 CAZ          3.0810     2.5400    -0.7830 c6         1 ZS4       0.186800
     13 CAI          4.3740     2.9910    -1.5240 c6         1 ZS4       0.132100
     14 OBD          5.5440     2.3690    -0.9490 os         1 ZS4      -0.443000
     15 CBC          5.4970     0.9280    -1.0390 c6         1 ZS4       0.132100
     16 CAX          4.2680     0.3610    -0.2710 c6         1 ZS4       0.186800
     17 NAN          0.6160     1.1670    -0.5200 nb         1 ZS4      -0.344500
     18 CAO         -0.5680     0.5660    -0.2820 ca         1 ZS4       0.332500
     19 NAJ         -1.7320     1.3150    -0.3950 na         1 ZS4      -0.184100
     20 CAK         -2.8420     0.9170    -1.0870 ca         1 ZS4      -0.038200
     21 CAL         -2.9280     0.3670    -2.3740 ca         1 ZS4      -0.091000
     22 CAM         -4.2110     0.0650    -2.8750 ca         1 ZS4      -0.098000
     23 CAH         -5.3590     0.3230    -2.0900 ca         1 ZS4      -0.130000
     24 CAG         -5.2300     0.8810    -0.7990 ca         1 ZS4      -0.045000
     25 CAF         -3.9440     1.1700    -0.3180 ca         1 ZS4       0.061400
     26 NAE         -3.6000     1.6980     0.9160 nc         1 ZS4      -0.526100
     27 CAD         -2.2480     1.7260     0.8530 cd         1 ZS4       0.362800
     28 CAC         -1.3900     2.1530     2.0350 c3         1 ZS4       0.191000
     29 FA          -1.9410     3.1770     2.7310 f          1 ZS4      -0.106000
     30 FB          -1.2020     1.1380     2.9120 f          1 ZS4      -0.106000
     31 HAQ1        -1.6930    -3.0080     0.4760 h1         1 ZS4       0.074200
     32 HAQ2        -0.9770    -3.1190     2.0890 h1         1 ZS4       0.074200
     33 HAR1        -1.7320    -5.3410     1.4340 h1         1 ZS4       0.056700
     34 HAR2        -0.9270    -5.2300    -0.1470 h1         1 ZS4       0.056700
     35 HBB1         2.4120    -5.5790     1.2560 h1         1 ZS4       0.056700
     36 HBB2         1.4920    -5.3690    -0.2510 h1         1 ZS4       0.056700
     37 HBA1         1.9730    -3.2880     1.9630 h1         1 ZS4       0.074200
     38 HBA2         2.5570    -3.2520     0.2940 h1         1 ZS4       0.074200
     39 HAZ1         2.2280     2.9470    -1.3460 h1         1 ZS4       0.074200
     40 HAZ2         3.0640     3.0100     0.2110 h1         1 ZS4       0.074200
     41 HAX1         4.4480     0.4670     0.8090 h1         1 ZS4       0.074200
     42 HAX2         4.2240    -0.7170    -0.4840 h1         1 ZS4       0.074200
     43 HAI1         4.3060     2.7190    -2.5870 h1         1 ZS4       0.056700
     44 HAI2         4.4770     4.0830    -1.4600 h1         1 ZS4       0.056700
     45 HBC1         5.4420     0.6340    -2.0970 h1         1 ZS4       0.056700
     46 HBC2         6.4230     0.5100    -0.6190 h1         1 ZS4       0.056700
     47 HAL         -2.0350     0.1810    -2.9670 ha         1 ZS4       0.134000
     48 HAM         -4.3170    -0.3640    -3.8700 ha         1 ZS4       0.112000
     49 HAH         -6.3460     0.0890    -2.4820 ha         1 ZS4       0.117000
     50 HAG         -6.1060     1.0790    -0.1870 ha         1 ZS4       0.133000
     51 HAC         -0.4110     2.4800     1.6720 h2         1 ZS4       0.086700
@<TRIPOS>BOND
     1     1     2 1   
     2     1     6 1   
     3     1    31 1   
     4     1    32 1   
     5     2     3 1   
     6     2    33 1   
     7     2    34 1   
     8     3     4 1   
     9     4     5 1   
    10     4    35 1   
    11     4    36 1   
    12     5     6 1   
    13     5    37 1   
    14     5    38 1   
    15     6     7 1   
    16     7     8 ar  
    17     7     9 ar  
    18     8    18 ar  
    19     9    10 ar  
    20    10    11 1   
    21    10    17 ar  
    22    11    12 1   
    23    11    16 1   
    24    12    13 1   
    25    12    39 1   
    26    12    40 1   
    27    13    14 1   
    28    13    43 1   
    29    13    44 1   
    30    14    15 1   
    31    15    16 1   
    32    15    45 1   
    33    15    46 1   
    34    16    41 1   
    35    16    42 1   
    36    17    18 ar  
    37    18    19 1   
    38    19    20 1   
    39    19    27 1   
    40    20    21 ar  
    41    20    25 ar  
    42    21    22 ar  
    43    21    47 1   
    44    22    23 ar  
    45    22    48 1   
    46    23    24 ar  
    47    23    49 1   
    48    24    25 ar  
    49    24    50 1   
    50    25    26 1   
    51    26    27 2   
    52    27    28 1   
    53    28    29 1   
    54    28    30 1   
    55    28    51 1   
@<TRIPOS>SUBSTRUCTURE
     1 ZS4         1 TEMP              0 ****  ****    0 ROOT
