@<TRIPOS>MOLECULE
ZS5
   30    32     1     0     0
SMALL
No Charge or Current Charge


@<TRIPOS>ATOM
      1 C13         24.9770   170.1840    23.6070 ca         1 ZS5      -0.083500
      2 C02         20.3340   169.5020    23.4990 c5         1 ZS5      -0.033300
      3 C03         21.0170   170.3500    22.3910 c5         1 ZS5       0.109600
      4 C04         22.5650   170.2050    24.4180 c5         1 ZS5       0.327700
      5 C05         22.7940   170.6340    25.9070 c5         1 ZS5      -0.071400
      6 C06         22.3310   169.3400    26.6490 c5         1 ZS5      -0.177400
      7 C07         21.1040   168.9140    25.8390 c          1 ZS5       0.571000
      8 C08         23.8060   169.4490    23.8970 ca         1 ZS5      -0.083300
      9 C09         23.8290   168.0480    23.6920 ca         1 ZS5      -0.083500
     10 C10         24.9880   167.4090    23.2180 ca         1 ZS5      -0.127000
     11 C11         26.1420   168.1560    22.9390 ca         1 ZS5      -0.122000
     12 C12         26.1350   169.5450    23.1330 ca         1 ZS5      -0.127000
     13 N01         21.3990   169.3210    24.5420 n          1 ZS5      -0.368800
     14 O03         19.9940   168.5780    26.2290 o          1 ZS5      -0.537000
     15 S01         21.9800   171.6000    23.3630 ss         1 ZS5      -0.550000
     16 H1          24.9870   171.2630    23.7510 ha         1 ZS5       0.145000
     17 H2          19.4870   170.0530    23.9260 h1         1 ZS5       0.056700
     18 H3          20.2890   170.8320    21.7240 h1         1 ZS5       0.077700
     19 H4          21.7040   169.7460    21.7820 h1         1 ZS5       0.077700
     20 H5          23.8290   170.9150    26.1290 hc         1 ZS5       0.054700
     21 H6          22.1550   171.4830    26.1770 hc         1 ZS5       0.054700
     22 H7          22.0970   169.4680    27.7110 hc         1 ZS5       0.064200
     23 H8          23.1100   168.5790    26.5250 hc         1 ZS5       0.064200
     24 H9          22.9530   167.4380    23.8980 ha         1 ZS5       0.145000
     25 H10         24.9900   166.3320    23.0670 ha         1 ZS5       0.103500
     26 H11         27.0380   167.6610    22.5720 ha         1 ZS5       0.095000
     27 H12         27.0270   170.1290    22.9170 ha         1 ZS5       0.103500
     28 C01         19.7810   168.1950    22.8530 c          1 ZS5       0.733000
     29 O01         20.5590   167.3200    22.4970 o          1 ZS5      -0.709000
     30 O02         18.5690   168.0610    22.7490 o          1 ZS5      -0.709000
@<TRIPOS>BOND
     1     1     8 ar  
     2     1    12 ar  
     3     1    16 1   
     4     2     3 1   
     5     2    13 1   
     6     2    17 1   
     7     2    28 1   
     8     3    15 1   
     9     3    18 1   
    10     3    19 1   
    11     4     5 1   
    12     4     8 1   
    13     4    13 1   
    14     4    15 1   
    15     5     6 1   
    16     5    20 1   
    17     5    21 1   
    18     6     7 1   
    19     6    22 1   
    20     6    23 1   
    21     7    13 1   
    22     7    14 2   
    23     8     9 ar  
    24     9    10 ar  
    25     9    24 1   
    26    10    11 ar  
    27    10    25 1   
    28    11    12 ar  
    29    11    26 1   
    30    12    27 1   
    31    28    29 1   
    32    28    30 1   
@<TRIPOS>SUBSTRUCTURE
     1 ZS5         1 TEMP              0 ****  ****    0 ROOT
