@<TRIPOS>MOLECULE
ZS5
   30    32     1     0     0
SMALL
abcg2


@<TRIPOS>ATOM
      1 C13         24.9350   170.1670    23.6170 ca         1 ZS5      -0.083500
      2 C02         20.4460   169.3970    23.5110 c5         1 ZS5      -0.033300
      3 C03         21.0380   170.3630    22.4770 c5         1 ZS5       0.109600
      4 C04         22.5800   170.1860    24.4980 c5         1 ZS5       0.327700
      5 C05         22.8650   170.6040    25.9510 c5         1 ZS5      -0.071400
      6 C06         22.2480   169.4620    26.7530 c5         1 ZS5      -0.177400
      7 C07         21.0860   169.0300    25.8830 c          1 ZS5       0.571000
      8 C08         23.7580   169.4630    23.8720 ca         1 ZS5      -0.083300
      9 C09         23.7130   168.1060    23.5800 ca         1 ZS5      -0.083500
     10 C10         24.8250   167.4650    23.0400 ca         1 ZS5      -0.127000
     11 C11         25.9910   168.1700    22.7910 ca         1 ZS5      -0.122000
     12 C12         26.0420   169.5290    23.0840 ca         1 ZS5      -0.127000
     13 N01         21.3910   169.3680    24.6100 n          1 ZS5      -0.368800
     14 O03         20.0540   168.4980    26.2450 o          1 ZS5      -0.537000
     15 S01         22.0210   171.5660    23.4170 ss         1 ZS5      -0.550000
     16 H1          24.9880   171.2280    23.8340 ha         1 ZS5       0.145000
     17 H2          19.5090   169.8220    23.8880 h1         1 ZS5       0.056700
     18 H3          20.2650   170.8840    21.9170 h1         1 ZS5       0.077700
     19 H4          21.6870   169.8470    21.7680 h1         1 ZS5       0.077700
     20 H5          23.9250   170.7540    26.1400 hc         1 ZS5       0.054700
     21 H6          22.3450   171.5360    26.1770 hc         1 ZS5       0.054700
     22 H7          21.9110   169.7570    27.7460 hc         1 ZS5       0.064200
     23 H8          22.9450   168.6270    26.8720 hc         1 ZS5       0.064200
     24 H9          22.8060   167.5440    23.7610 ha         1 ZS5       0.145000
     25 H10         24.7720   166.4070    22.8140 ha         1 ZS5       0.103500
     26 H11         26.8540   167.6700    22.3710 ha         1 ZS5       0.095000
     27 H12         26.9470   170.0930    22.8930 ha         1 ZS5       0.103500
     28 C01         20.1020   168.0330    22.8590 c          1 ZS5       0.733000
     29 O01         20.5610   166.9990    23.3690 o          1 ZS5      -0.709000
     30 O02         19.3610   168.1360    21.8640 o          1 ZS5      -0.709000
@<TRIPOS>BOND
     1     1     8 ar  
     2     1    12 ar  
     3     1    16 1   
     4     2     3 1   
     5     2    13 1   
     6     2    17 1   
     7     2    28 1   
     8     3    15 1   
     9     3    18 1   
    10     3    19 1   
    11     4     5 1   
    12     4     8 1   
    13     4    13 1   
    14     4    15 1   
    15     5     6 1   
    16     5    20 1   
    17     5    21 1   
    18     6     7 1   
    19     6    22 1   
    20     6    23 1   
    21     7    13 1   
    22     7    14 2   
    23     8     9 ar  
    24     9    10 ar  
    25     9    24 1   
    26    10    11 ar  
    27    10    25 1   
    28    11    12 ar  
    29    11    26 1   
    30    12    27 1   
    31    28    29 1   
    32    28    30 1   
@<TRIPOS>SUBSTRUCTURE
     1 ZS5         1 TEMP              0 ****  ****    0 ROOT
