@<TRIPOS>MOLECULE
ZS7
   17    18     1     0     0
SMALL
No Charge or Current Charge


@<TRIPOS>ATOM
      1 N1          27.0160     5.0010    58.3150 nc         1 ZS7      -0.747100
      2 C7          26.8750     3.3800    59.9140 ca         1 ZS7      -0.211900
      3 C1          25.6760     4.8420    58.6190 c          1 ZS7       0.713100
      4 C5          26.0780     1.7970    61.5430 ca         1 ZS7      -0.104000
      5 C6          27.1650     2.3820    60.8560 ca         1 ZS7      -0.069000
      6 C4          24.7480     2.2130    61.2790 ca         1 ZS7      -0.099000
      7 C3          24.4850     3.2210    60.3260 ca         1 ZS7      -0.044000
      8 C2          25.5840     3.7820    59.6610 ca         1 ZS7      -0.170600
      9 C           27.7230     4.1800    59.0450 cd         1 ZS7       0.742800
     10 O           24.7500     5.4600    58.1180 o          1 ZS7      -0.501100
     11 H4          26.2630     1.0200    62.2810 ha         1 ZS7       0.118000
     12 H5          28.1880     2.0690    61.0550 ha         1 ZS7       0.114000
     13 H3          23.9220     1.7520    61.8170 ha         1 ZS7       0.120000
     14 H2          23.4690     3.5490    60.1150 ha         1 ZS7       0.138000
     15 H           29.3500     4.6210    58.0160 hn         1 ZS7       0.506000
     16 H1          29.5300     3.3270    59.1290 hn         1 ZS7       0.506000
     17 N           29.0420     4.1770    58.8720 nv         1 ZS7      -1.013200
@<TRIPOS>BOND
     1     1     3 1   
     2     1     9 2   
     3     2     5 ar  
     4     2     8 ar  
     5     2     9 1   
     6     3     8 1   
     7     3    10 2   
     8     4     5 ar  
     9     4     6 ar  
    10     4    11 1   
    11     5    12 1   
    12     6     7 ar  
    13     6    13 1   
    14     7     8 ar  
    15     7    14 1   
    16     9    17 1   
    17    15    17 1   
    18    16    17 1   
@<TRIPOS>SUBSTRUCTURE
     1 ZS7         1 TEMP              0 ****  ****    0 ROOT
