@<TRIPOS>MOLECULE
ZS7
   17    18     1     0     0
SMALL
abcg2


@<TRIPOS>ATOM
      1 N1          26.9550     5.0020    58.2170 nc         1 ZS7      -0.747100
      2 C7          26.8630     3.3500    59.8670 ca         1 ZS7      -0.211900
      3 C1          25.6380     4.8340    58.5920 c          1 ZS7       0.713100
      4 C5          26.0970     1.8160    61.4980 ca         1 ZS7      -0.104000
      5 C6          27.1630     2.3670    60.7850 ca         1 ZS7      -0.069000
      6 C4          24.7920     2.2460    61.2880 ca         1 ZS7      -0.099000
      7 C3          24.5050     3.2420    60.3530 ca         1 ZS7      -0.044000
      8 C2          25.5630     3.7760    59.6550 ca         1 ZS7      -0.170600
      9 C           27.6750     4.1670    58.9310 cd         1 ZS7       0.742800
     10 O           24.6940     5.4400    58.1350 o          1 ZS7      -0.501100
     11 H4          26.2900     1.0410    62.2280 ha         1 ZS7       0.118000
     12 H5          28.1750     2.0230    60.9590 ha         1 ZS7       0.114000
     13 H3          23.9880     1.8010    61.8600 ha         1 ZS7       0.120000
     14 H2          23.4880     3.5770    60.1900 ha         1 ZS7       0.138000
     15 H           29.4920     4.6300    58.1800 hn         1 ZS7       0.506000
     16 H1          29.5050     3.4030    59.3900 hn         1 ZS7       0.506000
     17 N           28.9800     4.0570    58.8330 nv         1 ZS7      -1.013200
@<TRIPOS>BOND
     1     1     3 1   
     2     1     9 2   
     3     2     5 ar  
     4     2     8 ar  
     5     2     9 1   
     6     3     8 1   
     7     3    10 2   
     8     4     5 ar  
     9     4     6 ar  
    10     4    11 1   
    11     5    12 1   
    12     6     7 ar  
    13     6    13 1   
    14     7     8 ar  
    15     7    14 1   
    16     9    17 1   
    17    15    17 1   
    18    16    17 1   
@<TRIPOS>SUBSTRUCTURE
     1 ZS7         1 TEMP              0 ****  ****    0 ROOT
