@<TRIPOS>MOLECULE
ZS8
   32    31     1     0     0
SMALL
bcc


@<TRIPOS>ATOM
      1 N           -2.7660     1.5420     0.8130 n8         1 ZS8      -0.874800
      2 CA          -2.7120     0.4310    -0.1320 c3         1 ZS8       0.038200
      3 C           -3.9320    -0.4980     0.1130 c          1 ZS8       0.938600
      4 O           -4.2780    -1.2300    -0.8360 o          1 ZS8      -0.834300
      5 CB2         -2.7550     1.0130    -1.5440 c3         1 ZS8      -0.045100
      6 CB1         -1.4620    -0.4630     0.0470 c3         1 ZS8      -0.097400
      7 CG1         -0.1140     0.2350    -0.0990 c3         1 ZS8      -0.076400
      8 CD1          1.0530    -0.7340     0.0480 c3         1 ZS8      -0.078400
      9 CZ1          2.4120    -0.0500    -0.0230 c3         1 ZS8      -0.073400
     10 CE1          3.5620    -1.0560     0.0710 c3         1 ZS8       0.004700
     11 CT1          4.8810    -0.4310     0.0430 c1         1 ZS8      -0.118100
     12 CI1          5.9620     0.0990     0.0230 c1         1 ZS8      -0.174100
     13 CK1          7.2730     0.7320    -0.0030 c3         1 ZS8       0.006000
     14 H1          -2.8550     1.1700     1.7500 hn         1 ZS8       0.319800
     15 H2          -1.8950     2.0590     0.7890 hn         1 ZS8       0.319800
     16 H7          -3.7070     1.5120    -1.7310 hc         1 ZS8       0.015367
     17 H8          -1.9680     1.7570    -1.6900 hc         1 ZS8       0.015367
     18 H9          -2.6250     0.2400    -2.3000 hc         1 ZS8       0.015367
     19 H10         -1.5060    -0.9250     1.0410 hc         1 ZS8       0.043700
     20 H11         -1.5140    -1.2860    -0.6730 hc         1 ZS8       0.043700
     21 H12         -0.0450     0.7280    -1.0740 hc         1 ZS8       0.028200
     22 H13         -0.0150     1.0240     0.6530 hc         1 ZS8       0.028200
     23 H14          0.9680    -1.2680     1.0010 hc         1 ZS8       0.035200
     24 H15          0.9890    -1.4980    -0.7340 hc         1 ZS8       0.035200
     25 H16          2.4990     0.5120    -0.9570 hc         1 ZS8       0.041200
     26 H17          2.5020     0.6790     0.7870 hc         1 ZS8       0.041200
     27 H18          3.4610    -1.6400     0.9920 hc         1 ZS8       0.053700
     28 H19          3.4840    -1.7740    -0.7500 hc         1 ZS8       0.053700
     29 H20          8.0640     0.0060     0.1910 hc         1 ZS8       0.042700
     30 H21          7.4720     1.1880    -0.9730 hc         1 ZS8       0.042700
     31 H22          7.3500     1.5140     0.7530 hc         1 ZS8       0.042700
     32 OXT         -4.4410    -0.4810     1.2520 o          1 ZS8      -0.834300
@<TRIPOS>BOND
     1     1     2 1   
     2     1    14 1   
     3     1    15 1   
     4     2     3 1   
     5     2     5 1   
     6     2     6 1   
     7     3     4 1   
     8     3    32 1   
     9     5    16 1   
    10     5    17 1   
    11     5    18 1   
    12     6     7 1   
    13     6    19 1   
    14     6    20 1   
    15     7     8 1   
    16     7    21 1   
    17     7    22 1   
    18     8     9 1   
    19     8    23 1   
    20     8    24 1   
    21     9    10 1   
    22     9    25 1   
    23     9    26 1   
    24    10    11 1   
    25    10    27 1   
    26    10    28 1   
    27    11    12 3   
    28    12    13 1   
    29    13    29 1   
    30    13    30 1   
    31    13    31 1   
@<TRIPOS>SUBSTRUCTURE
     1 ZS8         1 TEMP              0 ****  ****    0 ROOT
