@<TRIPOS>MOLECULE
ZS8
   32    31     1     0     0
SMALL
No Charge or Current Charge


@<TRIPOS>ATOM
      1 N           -2.6760     1.5370     0.8760 n8         1 ZS8      -0.985200
      2 CA          -2.7360     0.4430    -0.1570 c3         1 ZS8       0.038200
      3 C           -4.0310    -0.4930    -0.0260 c          1 ZS8       0.728000
      4 O           -4.4560    -1.0790    -1.0160 o          1 ZS8      -0.729000
      5 CB2         -2.7270     1.1250    -1.5580 c3         1 ZS8      -0.045100
      6 CB1         -1.4810    -0.4700     0.0330 c3         1 ZS8      -0.097400
      7 CG1         -0.0890     0.2100    -0.0980 c3         1 ZS8      -0.076400
      8 CD1          1.0790    -0.7740     0.1330 c3         1 ZS8      -0.078400
      9 CZ1          2.4670    -0.1080    -0.0020 c3         1 ZS8      -0.073400
     10 CE1          3.6350    -1.0940     0.2290 c3         1 ZS8       0.004700
     11 CT1          4.9490    -0.4500     0.0980 c1         1 ZS8      -0.118100
     12 CI1          6.0170     0.1040    -0.0170 c1         1 ZS8      -0.174100
     13 CK1          7.2970     0.8060    -0.1640 c3         1 ZS8       0.006000
     14 H1          -3.3620     1.2990     1.6030 hn         1 ZS8       0.375000
     15 H2          -1.7760     1.4730     1.3620 hn         1 ZS8       0.375000
     16 H7          -3.6730     1.6500    -1.7380 hc         1 ZS8       0.015367
     17 H8          -1.9190     1.8620    -1.6450 hc         1 ZS8       0.015367
     18 H9          -2.5920     0.3860    -2.3560 hc         1 ZS8       0.015367
     19 H10         -1.5440    -0.9500     1.0180 hc         1 ZS8       0.043700
     20 H11         -1.5330    -1.2850    -0.6990 hc         1 ZS8       0.043700
     21 H12          0.0160     0.6460    -1.0980 hc         1 ZS8       0.028200
     22 H13         -0.0040     1.0320     0.6230 hc         1 ZS8       0.028200
     23 H14          0.9870    -1.2150     1.1340 hc         1 ZS8       0.035200
     24 H15          1.0040    -1.5980    -0.5880 hc         1 ZS8       0.035200
     25 H16          2.5570     0.3330    -1.0030 hc         1 ZS8       0.041200
     26 H17          2.5410     0.7160     0.7200 hc         1 ZS8       0.041200
     27 H18          3.5540    -1.5340     1.2300 hc         1 ZS8       0.053700
     28 H19          3.5700    -1.9180    -0.4930 hc         1 ZS8       0.053700
     29 H20          8.1320     0.1150    -0.0010 hc         1 ZS8       0.042700
     30 H21          7.3850     1.2310    -1.1710 hc         1 ZS8       0.042700
     31 H22          7.3710     1.6210     0.5660 hc         1 ZS8       0.042700
     32 OXT         -4.6190    -0.5140     1.0500 o          1 ZS8      -0.729000
@<TRIPOS>BOND
     1     1     2 1   
     2     1    14 1   
     3     1    15 1   
     4     2     3 1   
     5     2     5 1   
     6     2     6 1   
     7     3     4 1   
     8     3    32 1   
     9     5    16 1   
    10     5    17 1   
    11     5    18 1   
    12     6     7 1   
    13     6    19 1   
    14     6    20 1   
    15     7     8 1   
    16     7    21 1   
    17     7    22 1   
    18     8     9 1   
    19     8    23 1   
    20     8    24 1   
    21     9    10 1   
    22     9    25 1   
    23     9    26 1   
    24    10    11 1   
    25    10    27 1   
    26    10    28 1   
    27    11    12 3   
    28    12    13 1   
    29    13    29 1   
    30    13    30 1   
    31    13    31 1   
@<TRIPOS>SUBSTRUCTURE
     1 ZS8         1 TEMP              0 ****  ****    0 ROOT
