@<TRIPOS>MOLECULE
ZS9
   37    39     1     0     0
SMALL
No Charge or Current Charge


@<TRIPOS>ATOM
      1 C2          -2.7270    48.3380   -36.7650 c3         1 ZS9      -0.038200
      2 C3          -4.0070    48.5930   -35.9560 c2         1 ZS9      -0.105400
      3 C4          -5.1280    49.5750   -36.3800 c5         1 ZS9      -0.023500
      4 C5          -4.7240    51.1040   -36.3130 c5         1 ZS9      -0.015500
      5 C6          -3.1740    51.2480   -36.0370 c5         1 ZS9       0.183300
      6 C7          -2.3050    50.9070   -37.2870 c5         1 ZS9      -0.088700
      7 C8          -2.2420    49.4310   -37.7540 c3         1 ZS9      -0.053400
      8 C9          -0.9870    51.5670   -36.7900 c5         1 ZS9      -0.176700
      9 O11         -2.8350    52.6200   -35.7450 os         1 ZS9      -0.429100
     10 C12         -1.5440    52.8490   -36.1390 c          1 ZS9       0.657100
     11 C14         -0.1400    50.7470   -35.7730 c3         1 ZS9      -0.082100
     12 C15         -4.1860    47.9710   -34.7770 c2         1 ZS9      -0.323000
     13 C16         -5.6330    49.3250   -37.8430 c5         1 ZS9      -0.073400
     14 C18         -5.2340    51.7020   -37.6220 c2         1 ZS9      -0.132400
     15 C19         -6.1850    50.7120   -38.2590 c5         1 ZS9      -0.048200
     16 C20         -4.9490    52.9130   -38.1270 c2         1 ZS9      -0.297000
     17 H1          -2.8590    47.4150   -37.3420 hc         1 ZS9       0.046700
     18 H2          -1.9040    48.1270   -36.0710 hc         1 ZS9       0.046700
     19 H3          -5.9950    49.4470   -35.7190 hc         1 ZS9       0.053700
     20 H4          -5.2650    51.5680   -35.4800 hc         1 ZS9       0.071700
     21 H5          -2.8810    50.6590   -35.1580 h1         1 ZS9       0.062700
     22 H6          -2.6510    51.4690   -38.1620 hc         1 ZS9       0.071700
     23 H7          -2.7970    49.3350   -38.6910 hc         1 ZS9       0.046700
     24 H8          -1.2150    49.1880   -38.0500 hc         1 ZS9       0.046700
     25 H9          -0.3110    51.8510   -37.6040 hc         1 ZS9       0.087700
     26 H10          0.7240    51.3300   -35.4320 hc         1 ZS9       0.045033
     27 H11         -0.7090    50.4600   -34.8820 hc         1 ZS9       0.045033
     28 H12          0.2500    49.8290   -36.2280 hc         1 ZS9       0.045033
     29 H13         -5.0680    48.1300   -34.1560 ha         1 ZS9       0.165000
     30 H14         -3.4470    47.2710   -34.3850 ha         1 ZS9       0.165000
     31 H15         -6.4080    48.5510   -37.8780 hc         1 ZS9       0.047200
     32 H16         -4.8550    48.9970   -38.5310 hc         1 ZS9       0.047200
     33 H17         -6.2470    50.8300   -39.3470 hc         1 ZS9       0.051700
     34 H18         -7.1960    50.8560   -37.8610 hc         1 ZS9       0.051700
     35 H19         -4.2820    53.6100   -37.6210 ha         1 ZS9       0.172500
     36 H20         -5.3840    53.2550   -39.0670 ha         1 ZS9       0.172500
     37 O13         -1.0090    53.9460   -36.0870 o          1 ZS9      -0.494000
@<TRIPOS>BOND
     1     1     2 1   
     2     1     7 1   
     3     1    17 1   
     4     1    18 1   
     5     2     3 1   
     6     2    12 2   
     7     3     4 1   
     8     3    13 1   
     9     3    19 1   
    10     4     5 1   
    11     4    14 1   
    12     4    20 1   
    13     5     6 1   
    14     5     9 1   
    15     5    21 1   
    16     6     7 1   
    17     6     8 1   
    18     6    22 1   
    19     7    23 1   
    20     7    24 1   
    21     8    10 1   
    22     8    11 1   
    23     8    25 1   
    24     9    10 1   
    25    10    37 2   
    26    11    26 1   
    27    11    27 1   
    28    11    28 1   
    29    12    29 1   
    30    12    30 1   
    31    13    15 1   
    32    13    31 1   
    33    13    32 1   
    34    14    15 1   
    35    14    16 2   
    36    15    33 1   
    37    15    34 1   
    38    16    35 1   
    39    16    36 1   
@<TRIPOS>SUBSTRUCTURE
     1 ZS9         1 TEMP              0 ****  ****    0 ROOT
