@<TRIPOS>MOLECULE
ZS9
   37    39     1     0     0
SMALL
abcg2


@<TRIPOS>ATOM
      1 C2          -2.7210    48.4060   -36.0990 c3         1 ZS9      -0.038200
      2 C3          -4.2230    48.4840   -35.8870 c2         1 ZS9      -0.105400
      3 C4          -5.0660    49.6110   -36.4360 c5         1 ZS9      -0.023500
      4 C5          -4.6190    51.0800   -36.2080 c5         1 ZS9      -0.015500
      5 C6          -3.1030    51.2140   -36.1100 c5         1 ZS9       0.183300
      6 C7          -2.2920    50.6720   -37.2840 c5         1 ZS9      -0.088700
      7 C8          -2.1180    49.1440   -37.2930 c3         1 ZS9      -0.053400
      8 C9          -1.0210    51.5280   -37.1970 c5         1 ZS9      -0.176700
      9 O11         -2.7240    52.5960   -36.0150 os         1 ZS9      -0.429100
     10 C12         -1.5670    52.8220   -36.6360 c          1 ZS9       0.657100
     11 C14          0.0690    51.0070   -36.2570 c3         1 ZS9      -0.082100
     12 C15         -4.8270    47.5060   -35.2120 c2         1 ZS9      -0.323000
     13 C16         -5.3320    49.5070   -37.9490 c5         1 ZS9      -0.073400
     14 C18         -5.2540    51.8390   -37.3620 c2         1 ZS9      -0.132400
     15 C19         -5.9240    50.8650   -38.3020 c5         1 ZS9      -0.048200
     16 C20         -5.2820    53.1590   -37.5130 c2         1 ZS9      -0.297000
     17 H1          -2.4470    47.3520   -36.1840 hc         1 ZS9       0.046700
     18 H2          -2.2230    48.7490   -35.1870 hc         1 ZS9       0.046700
     19 H3          -6.0450    49.5220   -35.9560 hc         1 ZS9       0.053700
     20 H4          -5.0290    51.4350   -35.2580 hc         1 ZS9       0.071700
     21 H5          -2.7890    50.7440   -35.1730 h1         1 ZS9       0.062700
     22 H6          -2.8030    50.9750   -38.2040 hc         1 ZS9       0.071700
     23 H7          -2.5240    48.7350   -38.2180 hc         1 ZS9       0.046700
     24 H8          -1.0560    48.8930   -37.3160 hc         1 ZS9       0.046700
     25 H9          -0.5820    51.7120   -38.1800 hc         1 ZS9       0.087700
     26 H10          0.8580    51.7490   -36.1400 hc         1 ZS9       0.045033
     27 H11         -0.3190    50.7680   -35.2650 hc         1 ZS9       0.045033
     28 H12          0.5300    50.1060   -36.6600 hc         1 ZS9       0.045033
     29 H13         -5.8880    47.5320   -34.9980 ha         1 ZS9       0.165000
     30 H14         -4.2810    46.6430   -34.8490 ha         1 ZS9       0.165000
     31 H15         -6.0050    48.6770   -38.1690 hc         1 ZS9       0.047200
     32 H16         -4.4180    49.3300   -38.5150 hc         1 ZS9       0.047200
     33 H17         -5.7930    51.1370   -39.3500 hc         1 ZS9       0.051700
     34 H18         -7.0010    50.8610   -38.1070 hc         1 ZS9       0.051700
     35 H19         -4.8420    53.8410   -36.7990 ha         1 ZS9       0.172500
     36 H20         -5.7710    53.6060   -38.3700 ha         1 ZS9       0.172500
     37 O13         -1.0750    53.9170   -36.6660 o          1 ZS9      -0.494000
@<TRIPOS>BOND
     1     1     2 1   
     2     1     7 1   
     3     1    17 1   
     4     1    18 1   
     5     2     3 1   
     6     2    12 2   
     7     3     4 1   
     8     3    13 1   
     9     3    19 1   
    10     4     5 1   
    11     4    14 1   
    12     4    20 1   
    13     5     6 1   
    14     5     9 1   
    15     5    21 1   
    16     6     7 1   
    17     6     8 1   
    18     6    22 1   
    19     7    23 1   
    20     7    24 1   
    21     8    10 1   
    22     8    11 1   
    23     8    25 1   
    24     9    10 1   
    25    10    37 2   
    26    11    26 1   
    27    11    27 1   
    28    11    28 1   
    29    12    29 1   
    30    12    30 1   
    31    13    15 1   
    32    13    31 1   
    33    13    32 1   
    34    14    15 1   
    35    14    16 2   
    36    15    33 1   
    37    15    34 1   
    38    16    35 1   
    39    16    36 1   
@<TRIPOS>SUBSTRUCTURE
     1 ZS9         1 TEMP              0 ****  ****    0 ROOT
