@<TRIPOS>MOLECULE
ZSA
   25    26     1     0     0
SMALL
No Charge or Current Charge


@<TRIPOS>ATOM
      1 N1          25.0180    -2.0450    59.2670 n2         1 ZSA      -0.904100
      2 C7          21.6930    -0.0990    53.7770 ca         1 ZSA      -0.069000
      3 C8          21.2160    -1.0220    54.7200 ca         1 ZSA      -0.109900
      4 N2          23.3620    -1.6650    57.7030 nu         1 ZSA      -0.642500
      5 C1          21.7680    -1.5080    55.9700 cc         1 ZSA       0.559900
      6 C5          19.6460    -0.5130    52.4810 ca         1 ZSA      -0.115000
      7 C6          20.8890     0.1520    52.6430 ca         1 ZSA      -0.094000
      8 N3          22.9100    -1.1430    56.4920 n2         1 ZSA      -0.379400
      9 C4          19.1950    -1.4360    53.4500 ca         1 ZSA      -0.065000
     10 C3          20.0210    -1.6600    54.5600 ca         1 ZSA      -0.215900
     11 C2          19.8920    -2.5100    55.7230 cd         1 ZSA       0.718800
     12 N4          20.9080    -2.4360    56.5530 nc         1 ZSA      -0.803000
     13 N           25.1610    -0.3660    57.7490 nv         1 ZSA      -1.027200
     14 C           24.5300    -1.3580    58.3430 c2         1 ZSA       0.841100
     15 N5          18.9320    -3.3660    56.0550 nv         1 ZSA      -1.034200
     16 H2          24.3650    -2.8050    59.4910 hn         1 ZSA       0.384400
     17 H3          22.7960    -2.3510    58.2050 hn         1 ZSA       0.514000
     18 H7          19.0360    -0.3090    51.6040 ha         1 ZSA       0.117000
     19 H8          21.2250     0.8610    51.8900 ha         1 ZSA       0.118000
     20 H6          18.2420    -1.9500    53.3360 ha         1 ZSA       0.113000
     21 H1          24.6980    -0.2240    56.8620 hn         1 ZSA       0.480000
     22 H           26.1490    -0.5560    57.6820 hn         1 ZSA       0.480000
     23 H5          19.2070    -4.0340    56.7630 hn         1 ZSA       0.500500
     24 H4          18.3700    -3.7310    55.2960 hn         1 ZSA       0.500500
     25 H9          22.6480     0.4040    53.9130 ha         1 ZSA       0.132000
@<TRIPOS>BOND
     1     1    14 2   
     2     1    16 1   
     3     2     3 ar  
     4     2     7 ar  
     5     2    25 1   
     6     3     5 1   
     7     3    10 ar  
     8     4     8 1   
     9     4    14 1   
    10     4    17 1   
    11     5     8 2   
    12     5    12 1   
    13     6     7 ar  
    14     6     9 ar  
    15     6    18 1   
    16     7    19 1   
    17     9    10 ar  
    18     9    20 1   
    19    10    11 1   
    20    11    12 2   
    21    11    15 1   
    22    13    14 1   
    23    13    21 1   
    24    13    22 1   
    25    15    23 1   
    26    15    24 1   
@<TRIPOS>SUBSTRUCTURE
     1 ZSA         1 TEMP              0 ****  ****    0 ROOT
