@<TRIPOS>MOLECULE
ZSA
   25    26     1     0     0
SMALL
bcc


@<TRIPOS>ATOM
      1 N1          24.9850    -1.9400    59.2850 n2         1 ZSA      -0.904100
      2 C7          21.6830    -0.0890    53.8490 ca         1 ZSA      -0.087000
      3 C8          21.2520    -1.0410    54.7550 ca         1 ZSA      -0.109900
      4 N2          23.3270    -1.7500    57.6360 nu         1 ZSA      -0.587300
      5 C1          21.8100    -1.5700    56.0010 cc         1 ZSA       0.559900
      6 C5          19.6750    -0.5210    52.5560 ca         1 ZSA      -0.133000
      7 C6          20.8760     0.1630    52.7440 ca         1 ZSA      -0.112000
      8 N3          22.9240    -1.1830    56.4950 n2         1 ZSA      -0.379400
      9 C4          19.2460    -1.4760    53.4700 ca         1 ZSA      -0.083000
     10 C3          20.0530    -1.7220    54.5680 ca         1 ZSA      -0.215900
     11 C2          19.9470    -2.6310    55.7240 cd         1 ZSA       0.718800
     12 N4          20.9680    -2.5290    56.5360 nc         1 ZSA      -0.803000
     13 N           25.1870    -0.3770    57.6010 nv         1 ZSA      -0.916800
     14 C           24.5260    -1.3980    58.2180 c2         1 ZSA       0.841100
     15 N5          18.9270    -3.4570    55.9130 nv         1 ZSA      -0.923800
     16 H2          24.3510    -2.6450    59.6420 hn         1 ZSA       0.384400
     17 H3          22.7570    -2.4670    58.0680 hn         1 ZSA       0.458800
     18 H7          19.0700    -0.3030    51.6860 ha         1 ZSA       0.135000
     19 H8          21.1840     0.9030    52.0170 ha         1 ZSA       0.136000
     20 H6          18.3110    -2.0010    53.3160 ha         1 ZSA       0.131000
     21 H1          24.9810    -0.2060    56.6300 hn         1 ZSA       0.424800
     22 H           26.1570    -0.2940    57.8500 hn         1 ZSA       0.424800
     23 H5          18.9010    -4.0620    56.7170 hn         1 ZSA       0.445300
     24 H4          18.1650    -3.5170    55.2610 hn         1 ZSA       0.445300
     25 H9          22.6140     0.4440    53.9890 ha         1 ZSA       0.150000
@<TRIPOS>BOND
     1     1    14 2   
     2     1    16 1   
     3     2     3 ar  
     4     2     7 ar  
     5     2    25 1   
     6     3     5 1   
     7     3    10 ar  
     8     4     8 1   
     9     4    14 1   
    10     4    17 1   
    11     5     8 2   
    12     5    12 1   
    13     6     7 ar  
    14     6     9 ar  
    15     6    18 1   
    16     7    19 1   
    17     9    10 ar  
    18     9    20 1   
    19    10    11 1   
    20    11    12 2   
    21    11    15 1   
    22    13    14 1   
    23    13    21 1   
    24    13    22 1   
    25    15    23 1   
    26    15    24 1   
@<TRIPOS>SUBSTRUCTURE
     1 ZSA         1 TEMP              0 ****  ****    0 ROOT
