@<TRIPOS>MOLECULE
ZSB
   58    62     1     0     0
SMALL
No Charge or Current Charge


@<TRIPOS>ATOM
      1 C1           5.1770   -41.3190    22.7410 c3         1 ZSB       0.147900
      2 C3           5.7920   -40.0100    24.7080 cy         1 ZSB       0.125300
      3 C4           5.8310   -41.0970    25.8290 cy         1 ZSB      -0.128400
      4 C5           6.1850   -39.9120    26.7900 cy         1 ZSB      -0.103400
      5 C6           5.3240   -39.0210    25.8330 cy         1 ZSB       0.108700
      6 C8           4.7620   -36.6250    25.3960 c          1 ZSB       0.668300
      7 O9           3.5750   -36.8310    25.2010 o          1 ZSB      -0.619100
      8 C11          4.6320   -34.1240    24.9980 cc         1 ZSB       0.472500
      9 N13          6.6080   -33.5420    25.2490 na         1 ZSB       0.040900
     10 C15          8.9010   -33.5960    25.6360 cc         1 ZSB      -0.393000
     11 C16          8.7850   -35.0100    25.8110 cc         1 ZSB       0.707900
     12 C18          6.6410   -34.8980    25.4590 cd         1 ZSB       0.498500
     13 C21          9.6850   -37.9920    25.4840 cc         1 ZSB      -0.124000
     14 C23         11.1580   -39.6900    26.4380 cd         1 ZSB      -0.037400
     15 C27         15.2860   -39.3180    28.4200 ca         1 ZSB      -0.066000
     16 C31         11.4910   -37.3340    27.1000 c          1 ZSB       0.548200
     17 O2           4.8720   -40.2360    23.6350 os         1 ZSB      -0.424000
     18 N7           5.6400   -37.6220    25.7270 ns         1 ZSB      -0.493900
     19 C10          5.3580   -35.3000    25.3010 cc         1 ZSB      -0.407800
     20 N17          7.6890   -35.7360    25.7510 nd         1 ZSB      -0.808000
     21 N12          5.3560   -33.0040    24.9540 nd         1 ZSB      -0.625100
     22 C14          7.8010   -32.8230    25.3430 cd         1 ZSB       0.438000
     23 N33          7.8270   -31.4660    25.1510 nu         1 ZSB      -0.953200
     24 C20         10.3210   -36.9950    26.2060 cd         1 ZSB       0.022800
     25 C22         10.1110   -39.3570    25.6060 cc         1 ZSB      -0.267000
     26 N24         11.8180   -38.6970    27.1670 n          1 ZSB      -0.265500
     27 C25         12.9140   -39.2180    27.9200 ca         1 ZSB       0.438900
     28 N30         12.6130   -40.1100    28.8940 nb         1 ZSB      -0.679000
     29 C29         13.6310   -40.6100    29.6310 ca         1 ZSB       0.351900
     30 C28         14.9730   -40.2450    29.4280 ca         1 ZSB      -0.159000
     31 C26         14.2310   -38.7960    27.6550 ca         1 ZSB      -0.124000
     32 H1           4.4170   -41.3880    21.9520 h1         1 ZSB       0.026700
     33 H2           6.1540   -41.1650    22.2640 h1         1 ZSB       0.026700
     34 H3           5.1990   -42.2750    23.2790 h1         1 ZSB       0.026700
     35 H4           6.7830   -39.7650    24.3050 h1         1 ZSB       0.030700
     36 H5           4.8680   -41.5800    26.0330 hc         1 ZSB       0.056200
     37 H6           6.5980   -41.8720    25.7190 hc         1 ZSB       0.056200
     38 H7           7.2500   -39.6520    26.8220 hc         1 ZSB       0.056700
     39 H8           5.8170   -40.0010    27.8180 hc         1 ZSB       0.056700
     40 H9           4.2510   -39.1220    26.0420 h1         1 ZSB       0.100700
     41 H10          3.5690   -34.0540    24.8040 h4         1 ZSB       0.062800
     42 H11          9.8770   -33.1380    25.7260 ha         1 ZSB       0.140000
     43 H12          8.8700   -37.7640    24.8040 ha         1 ZSB       0.216000
     44 H13         11.5340   -40.7030    26.5740 h4         1 ZSB       0.216000
     45 H18          6.5950   -37.3030    25.8700 hn         1 ZSB       0.333500
     46 H19          6.9080   -31.0640    24.9360 hn         1 ZSB       0.535000
     47 H21          9.5990   -40.1250    25.0290 ha         1 ZSB       0.204000
     48 H22         13.3630   -41.3260    30.4070 h4         1 ZSB       0.027100
     49 H23         15.7530   -40.6770    30.0480 ha         1 ZSB       0.130000
     50 H24         14.4250   -38.0760    26.8650 ha         1 ZSB       0.142000
     51 N19          9.9470   -35.6490    26.1150 nu         1 ZSB      -0.778900
     52 C34          9.0000   -30.5740    25.2060 c3         1 ZSB       0.216100
     53 O32         12.1160   -36.4850    27.7310 o          1 ZSB      -0.571000
     54 H14         16.3150   -39.0130    28.2380 ha         1 ZSB       0.127000
     55 H15          8.7050   -29.5350    25.0040 h1         1 ZSB       0.048367
     56 H16          9.4690   -30.6130    26.1990 h1         1 ZSB       0.048367
     57 H17          9.7470   -30.8710    24.4570 h1         1 ZSB       0.048367
     58 H20         10.6330   -35.0010    26.4970 hn         1 ZSB       0.523000
@<TRIPOS>BOND
     1     1    17 1   
     2     1    32 1   
     3     1    33 1   
     4     1    34 1   
     5     2     3 1   
     6     2     5 1   
     7     2    17 1   
     8     2    35 1   
     9     3     4 1   
    10     3    36 1   
    11     3    37 1   
    12     4     5 1   
    13     4    38 1   
    14     4    39 1   
    15     5    18 1   
    16     5    40 1   
    17     6     7 2   
    18     6    18 1   
    19     6    19 1   
    20     8    19 1   
    21     8    21 2   
    22     8    41 1   
    23     9    12 1   
    24     9    21 1   
    25     9    22 1   
    26    10    11 1   
    27    10    22 2   
    28    10    42 1   
    29    11    20 2   
    30    11    51 1   
    31    12    19 2   
    32    12    20 1   
    33    13    24 2   
    34    13    25 1   
    35    13    43 1   
    36    14    25 2   
    37    14    26 1   
    38    14    44 1   
    39    15    30 ar  
    40    15    31 ar  
    41    15    54 1   
    42    16    24 1   
    43    16    26 1   
    44    16    53 2   
    45    18    45 1   
    46    22    23 1   
    47    23    46 1   
    48    23    52 1   
    49    24    51 1   
    50    25    47 1   
    51    26    27 1   
    52    27    28 ar  
    53    27    31 ar  
    54    28    29 ar  
    55    29    30 ar  
    56    29    48 1   
    57    30    49 1   
    58    31    50 1   
    59    51    58 1   
    60    52    55 1   
    61    52    56 1   
    62    52    57 1   
@<TRIPOS>SUBSTRUCTURE
     1 ZSB         1 TEMP              0 ****  ****    0 ROOT
