@<TRIPOS>MOLECULE
ZSB
   58    62     1     0     0
SMALL
abcg2


@<TRIPOS>ATOM
      1 C1           5.5710   -41.0710    22.6530 c3         1 ZSB       0.147900
      2 C3           5.7710   -39.9850    24.7080 cy         1 ZSB       0.125300
      3 C4           5.8270   -41.0830    25.7890 cy         1 ZSB      -0.128400
      4 C5           5.8130   -39.9500    26.8340 cy         1 ZSB      -0.103400
      5 C6           5.1900   -39.0380    25.7610 cy         1 ZSB       0.108700
      6 C8           4.7250   -36.6410    25.4260 c          1 ZSB       0.668300
      7 O9           3.5230   -36.7860    25.2230 o          1 ZSB      -0.619100
      8 C11          4.7110   -34.0930    25.1380 cc         1 ZSB       0.472500
      9 N13          6.7500   -33.6280    25.3230 na         1 ZSB       0.040900
     10 C15          9.0610   -33.6740    25.6080 cc         1 ZSB      -0.393000
     11 C16          8.9480   -35.0770    25.7450 cc         1 ZSB       0.707900
     12 C18          6.7080   -34.9870    25.4720 cd         1 ZSB       0.498500
     13 C21          9.4760   -38.1380    25.6800 cc         1 ZSB      -0.124000
     14 C23         10.9030   -39.7830    26.6670 cd         1 ZSB      -0.037400
     15 C27         15.2340   -39.1930    28.2110 ca         1 ZSB      -0.066000
     16 C31         11.4930   -37.4430    26.8840 c          1 ZSB       0.548200
     17 O2           5.0080   -40.1530    23.5580 os         1 ZSB      -0.424000
     18 N7           5.5590   -37.6570    25.7330 ns         1 ZSB      -0.493900
     19 C10          5.3570   -35.3230    25.3570 cc         1 ZSB      -0.407800
     20 N17          7.7980   -35.7270    25.6770 nd         1 ZSB      -0.808000
     21 N12          5.5380   -33.0730    25.1180 nd         1 ZSB      -0.625100
     22 C14          7.9220   -32.9260    25.3860 cd         1 ZSB       0.438000
     23 N33          7.8520   -31.6100    25.2290 nu         1 ZSB      -0.953200
     24 C20         10.2750   -37.1370    26.1430 cd         1 ZSB       0.022800
     25 C22          9.7910   -39.4900    25.9630 cc         1 ZSB      -0.267000
     26 N24         11.7410   -38.7860    27.0920 n          1 ZSB      -0.265500
     27 C25         12.8930   -39.1540    27.8540 ca         1 ZSB       0.438900
     28 N30         12.6490   -39.8770    28.9270 nb         1 ZSB      -0.679000
     29 C29         13.6850   -40.2740    29.6590 ca         1 ZSB       0.351900
     30 C28         14.9950   -39.9500    29.3500 ca         1 ZSB      -0.159000
     31 C26         14.1620   -38.7850    27.4350 ca         1 ZSB      -0.124000
     32 H1           4.9230   -41.1210    21.7790 h1         1 ZSB       0.026700
     33 H2           6.5710   -40.7610    22.3240 h1         1 ZSB       0.026700
     34 H3           5.6530   -42.0770    23.0780 h1         1 ZSB       0.026700
     35 H4           6.7990   -39.6730    24.4600 h1         1 ZSB       0.030700
     36 H5           4.9040   -41.6640    25.8140 hc         1 ZSB       0.056200
     37 H6           6.6800   -41.7600    25.7850 hc         1 ZSB       0.056200
     38 H7           6.8240   -39.6290    27.0890 hc         1 ZSB       0.056700
     39 H8           5.2480   -40.1030    27.7520 hc         1 ZSB       0.056700
     40 H9           4.1040   -39.1230    25.7770 h1         1 ZSB       0.100700
     41 H10          3.6530   -33.9290    24.9970 h4         1 ZSB       0.062800
     42 H11         10.0260   -33.1920    25.6680 ha         1 ZSB       0.140000
     43 H12          8.5970   -37.9160    25.0970 ha         1 ZSB       0.216000
     44 H13         11.1990   -40.7900    26.9160 h4         1 ZSB       0.216000
     45 H18          6.5360   -37.4340    25.8760 hn         1 ZSB       0.333500
     46 H19          6.9440   -31.2050    25.0650 hn         1 ZSB       0.535000
     47 H21          9.1500   -40.2850    25.6120 ha         1 ZSB       0.204000
     48 H22         13.4550   -40.8720    30.5330 h4         1 ZSB       0.027100
     49 H23         15.8060   -40.2880    29.9800 ha         1 ZSB       0.130000
     50 H24         14.3110   -38.2120    26.5320 ha         1 ZSB       0.142000
     51 N19         10.0930   -35.7750    25.9680 nu         1 ZSB      -0.778900
     52 C34          9.0100   -30.7520    25.2700 c3         1 ZSB       0.216100
     53 O32         12.2520   -36.5750    27.3010 o          1 ZSB      -0.571000
     54 H14         16.2430   -38.9300    27.9240 ha         1 ZSB       0.127000
     55 H15          8.6800   -29.7280    25.1270 h1         1 ZSB       0.048367
     56 H16          9.5240   -30.8160    26.2300 h1         1 ZSB       0.048367
     57 H17          9.7210   -30.9970    24.4790 h1         1 ZSB       0.048367
     58 H20         10.9160   -35.2240    26.1700 hn         1 ZSB       0.523000
@<TRIPOS>BOND
     1     1    17 1   
     2     1    32 1   
     3     1    33 1   
     4     1    34 1   
     5     2     3 1   
     6     2     5 1   
     7     2    17 1   
     8     2    35 1   
     9     3     4 1   
    10     3    36 1   
    11     3    37 1   
    12     4     5 1   
    13     4    38 1   
    14     4    39 1   
    15     5    18 1   
    16     5    40 1   
    17     6     7 2   
    18     6    18 1   
    19     6    19 1   
    20     8    19 1   
    21     8    21 2   
    22     8    41 1   
    23     9    12 1   
    24     9    21 1   
    25     9    22 1   
    26    10    11 1   
    27    10    22 2   
    28    10    42 1   
    29    11    20 2   
    30    11    51 1   
    31    12    19 2   
    32    12    20 1   
    33    13    24 2   
    34    13    25 1   
    35    13    43 1   
    36    14    25 2   
    37    14    26 1   
    38    14    44 1   
    39    15    30 ar  
    40    15    31 ar  
    41    15    54 1   
    42    16    24 1   
    43    16    26 1   
    44    16    53 2   
    45    18    45 1   
    46    22    23 1   
    47    23    46 1   
    48    23    52 1   
    49    24    51 1   
    50    25    47 1   
    51    26    27 1   
    52    27    28 ar  
    53    27    31 ar  
    54    28    29 ar  
    55    29    30 ar  
    56    29    48 1   
    57    30    49 1   
    58    31    50 1   
    59    51    58 1   
    60    52    55 1   
    61    52    56 1   
    62    52    57 1   
@<TRIPOS>SUBSTRUCTURE
     1 ZSB         1 TEMP              0 ****  ****    0 ROOT
