@<TRIPOS>MOLECULE
ZSC
   27    27     1     0     0
SMALL
No Charge or Current Charge


@<TRIPOS>ATOM
      1 CAG         -2.0380     1.4660    -2.2290 c3         1 ZSC       0.191100
      2 CAH         -3.0750    -0.5030     0.8040 c3         1 ZSC      -0.383100
      3 OAJ          2.3110     2.3060     2.2840 o          1 ZSC      -0.740000
      4 OAK          1.0300    -2.8050    -2.5980 o          1 ZSC      -0.740000
      5 OAP         -4.1130     1.6720    -0.2810 o          1 ZSC      -0.560000
      6 OAQ         -2.3600     1.9400     1.5370 o          1 ZSC      -0.560000
      7 CBH          2.1500    -0.5130    -0.0060 ca         1 ZSC      -0.034000
      8 CBI          0.4820     1.2060     0.4160 ca         1 ZSC      -0.083500
      9 CBJ          0.0610    -0.5080    -1.2500 ca         1 ZSC      -0.083500
     10 O2           3.7130     0.7060     2.0090 o          1 ZSC      -0.740000
     11 O1           2.8560    -2.8270    -1.4710 o          1 ZSC      -0.740000
     12 CCF          1.7470     0.6420     0.7020 ca         1 ZSC      -0.170600
     13 CCG          1.3180    -1.0990    -0.9880 ca         1 ZSC      -0.170600
     14 CCI         -0.3670     0.6360    -0.5510 ca         1 ZSC       0.124000
     15 NCS         -1.6280     1.2060    -0.8370 nh         1 ZSC      -0.706300
     16 SCU         -2.8770     1.2190     0.3690 s6         1 ZSC       1.188100
     17 HAG         -2.7300     0.6880    -2.5810 h1         1 ZSC       0.039033
     18 HAGA        -2.5290     2.4450    -2.3100 h1         1 ZSC       0.039033
     19 HAGB        -1.1630     1.4770    -2.8920 h1         1 ZSC       0.039033
     20 HAH         -3.3450    -1.0440    -0.1080 h1         1 ZSC       0.092700
     21 HAHA        -2.1190    -0.8540     1.2060 h1         1 ZSC       0.092700
     22 HAHB        -3.8680    -0.5650     1.5550 h1         1 ZSC       0.092700
     23 HBH          3.1210    -0.9570     0.2050 ha         1 ZSC       0.148000
     24 HBI          0.1610     2.1020     0.9380 ha         1 ZSC       0.115500
     25 HBJ         -0.5970    -0.9460    -1.9960 ha         1 ZSC       0.115500
     26 CBY          1.7680    -2.3380    -1.7420 c          1 ZSC       0.717100
     27 CBX          2.6580     1.2650     1.7450 c          1 ZSC       0.717100
@<TRIPOS>BOND
     1     1    15 1   
     2     1    17 1   
     3     1    18 1   
     4     1    19 1   
     5     2    16 1   
     6     2    20 1   
     7     2    21 1   
     8     2    22 1   
     9     3    27 1   
    10     4    26 1   
    11     5    16 2   
    12     6    16 2   
    13     7    12 ar  
    14     7    13 ar  
    15     7    23 1   
    16     8    12 ar  
    17     8    14 ar  
    18     8    24 1   
    19     9    13 ar  
    20     9    14 ar  
    21     9    25 1   
    22    10    27 1   
    23    11    26 1   
    24    12    27 1   
    25    13    26 1   
    26    14    15 1   
    27    15    16 1   
@<TRIPOS>SUBSTRUCTURE
     1 ZSC         1 TEMP              0 ****  ****    0 ROOT
