@<TRIPOS>MOLECULE
ZSC
   27    27     1     0     0
SMALL
abcg2


@<TRIPOS>ATOM
      1 CAG         -2.0050     1.4320    -2.0580 c3         1 ZSC       0.191100
      2 CAH         -3.3110    -0.5950     0.2680 c3         1 ZSC      -0.383100
      3 OAJ          2.5230     2.5880     1.9960 o          1 ZSC      -0.740000
      4 OAK          0.7160    -2.9420    -2.1610 o          1 ZSC      -0.740000
      5 OAP         -3.8610     1.9680     0.1370 o          1 ZSC      -0.560000
      6 OAQ         -2.1340     1.1940     1.7820 o          1 ZSC      -0.560000
      7 CBH          2.1640    -0.4370     0.0280 ca         1 ZSC      -0.034000
      8 CBI          0.6120     1.3510     0.3920 ca         1 ZSC      -0.083500
      9 CBJ          0.0070    -0.5130    -1.0060 ca         1 ZSC      -0.083500
     10 O2           3.9700     0.9250     1.6760 o          1 ZSC      -0.740000
     11 O1           2.7360    -2.8820    -1.2220 o          1 ZSC      -0.740000
     12 CCF          1.8590     0.7820     0.6260 ca         1 ZSC      -0.170600
     13 CCG          1.2530    -1.0940    -0.7920 ca         1 ZSC      -0.170600
     14 CCI         -0.3110     0.7040    -0.4180 ca         1 ZSC       0.124000
     15 NCS         -1.5730     1.3300    -0.6660 nh         1 ZSC      -0.706300
     16 SCU         -2.7560     1.0830     0.4730 s6         1 ZSC       1.188100
     17 HAG         -2.3340     0.4830    -2.4880 h1         1 ZSC       0.039033
     18 HAGA        -2.8070     2.1580    -2.1510 h1         1 ZSC       0.039033
     19 HAGB        -1.1590     1.7930    -2.6400 h1         1 ZSC       0.039033
     20 HAH         -3.7010    -0.7330    -0.7380 h1         1 ZSC       0.092700
     21 HAHA        -2.4840    -1.2780     0.4490 h1         1 ZSC       0.092700
     22 HAHB        -4.1020    -0.7750     0.9940 h1         1 ZSC       0.092700
     23 HBH          3.1350    -0.8780     0.2010 ha         1 ZSC       0.148000
     24 HBI          0.3640     2.3070     0.8300 ha         1 ZSC       0.115500
     25 HBJ         -0.7060    -1.0220    -1.6440 ha         1 ZSC       0.115500
     26 CBY          1.5990    -2.4250    -1.4500 c          1 ZSC       0.717100
     27 CBX          2.8750     1.4950     1.5120 c          1 ZSC       0.717100
@<TRIPOS>BOND
     1     1    15 1   
     2     1    17 1   
     3     1    18 1   
     4     1    19 1   
     5     2    16 1   
     6     2    20 1   
     7     2    21 1   
     8     2    22 1   
     9     3    27 1   
    10     4    26 1   
    11     5    16 2   
    12     6    16 2   
    13     7    12 ar  
    14     7    13 ar  
    15     7    23 1   
    16     8    12 ar  
    17     8    14 ar  
    18     8    24 1   
    19     9    13 ar  
    20     9    14 ar  
    21     9    25 1   
    22    10    27 1   
    23    11    26 1   
    24    12    27 1   
    25    13    26 1   
    26    14    15 1   
    27    15    16 1   
@<TRIPOS>SUBSTRUCTURE
     1 ZSC         1 TEMP              0 ****  ****    0 ROOT
