@<TRIPOS>MOLECULE
ZSD
   51    54     1     0     0
SMALL
No Charge or Current Charge


@<TRIPOS>ATOM
      1 N1          25.4320     2.3810    59.9880 nh         1 ZSD      -0.766300
      2 C7          25.6810    -0.1310    60.2860 c6         1 ZSD       0.053600
      3 C8          26.1080     3.5940    59.7280 ca         1 ZSD       0.403900
      4 N2          24.2180    -0.2280    60.1560 na         1 ZSD       0.133800
      5 C9          27.4790     3.6270    59.4350 ca         1 ZSD      -0.370000
      6 C5          23.9350     2.3040    59.9270 c6         1 ZSD       0.277100
      7 C6          26.0750     1.2840    60.7930 c6         1 ZSD       0.188800
      8 N3          23.5070    -1.4120    60.1840 nc         1 ZSD      -0.514800
      9 C4          23.4230     0.8890    59.9840 cc         1 ZSD      -0.171300
     10 C3          22.1550     0.3960    59.9000 cd         1 ZSD      -0.213000
     11 C2          22.2540    -1.0090    60.0200 cd         1 ZSD       0.211300
     12 N           20.6520    -2.4300    58.6270 n3         1 ZSD      -0.723600
     13 C           21.6810    -3.2230    57.9130 c3         1 ZSD       0.156100
     14 O           18.8250    -2.2980    54.4760 os         1 ZSD      -0.079700
     15 C10         28.0450     4.8700    59.1790 ca         1 ZSD       0.409900
     16 C11         26.0290     5.8760    59.4780 ca         1 ZSD       0.196900
     17 C12         20.0970    -1.3210    57.8190 c3         1 ZSD       0.252100
     18 C13         19.3950    -1.7980    56.5810 cc         1 ZSD      -0.219300
     19 C14         18.1310    -2.4210    56.5300 cc         1 ZSD       0.298300
     20 C15         17.2980    -2.6950    57.7510 c3         1 ZSD      -0.131400
     21 C16         19.7840    -1.7440    55.2820 cd         1 ZSD       0.189300
     22 C17         21.0390    -1.1960    54.6630 c3         1 ZSD      -0.137400
     23 N5          27.3410     6.0050    59.1990 nb         1 ZSD      -0.285000
     24 N6          25.3760     4.7260    59.7390 nb         1 ZSD      -0.286000
     25 N7          17.7390    -2.7400    55.3070 nd         1 ZSD      -0.373300
     26 H11         26.1340    -0.3120    59.3030 h1         1 ZSD       0.073700
     27 H10         26.0430    -0.8980    60.9830 h1         1 ZSD       0.073700
     28 H12         28.0750     2.7240    59.3840 ha         1 ZSD       0.123000
     29 H4          20.2540    -1.5380    60.5190 h1         1 ZSD       0.063700
     30 H3          21.3840    -2.8780    60.5780 h1         1 ZSD       0.063700
     31 H7          23.5760     2.7720    58.9980 h1         1 ZSD       0.088700
     32 H6          23.4980     2.8800    60.7570 h1         1 ZSD       0.088700
     33 H9          27.1700     1.3590    60.7870 h1         1 ZSD       0.071700
     34 H8          25.7650     1.3760    61.8450 h1         1 ZSD       0.071700
     35 H5          21.2430     0.9690    59.7660 ha         1 ZSD       0.145000
     36 H14         29.7740     5.9200    58.9190 hn         1 ZSD       0.496500
     37 H13         29.9800     4.2110    59.0890 hn         1 ZSD       0.496500
     38 H1          21.2710    -3.6670    56.9960 h1         1 ZSD       0.034033
     39 H           22.5390    -2.5970    57.6360 h1         1 ZSD       0.034033
     40 H2          22.0460    -4.0440    58.5450 h1         1 ZSD       0.034033
     41 H15         25.4380     6.7900    59.4940 h5         1 ZSD       0.044100
     42 H16         19.3790    -0.7440    58.4170 h1         1 ZSD       0.040700
     43 H17         20.8980    -0.6270    57.5260 h1         1 ZSD       0.040700
     44 H20         16.3560    -3.1900    57.4880 hc         1 ZSD       0.056700
     45 H19         17.8370    -3.3460    58.4490 hc         1 ZSD       0.056700
     46 H18         17.0550    -1.7620    58.2720 hc         1 ZSD       0.056700
     47 H21         21.1170    -0.1160    54.8330 hc         1 ZSD       0.061367
     48 H23         21.9270    -1.6710    55.0960 hc         1 ZSD       0.061367
     49 H22         21.0580    -1.3700    53.5810 hc         1 ZSD       0.061367
     50 C1          21.0970    -1.9980    59.9860 c3         1 ZSD       0.146500
     51 N4          29.3600     4.9910    58.8880 nv         1 ZSD      -1.082900
@<TRIPOS>BOND
     1     1     3 1   
     2     1     6 1   
     3     1     7 1   
     4     2     4 1   
     5     2     7 1   
     6     2    26 1   
     7     2    27 1   
     8     3     5 ar  
     9     3    24 ar  
    10     4     8 1   
    11     4     9 1   
    12     5    15 ar  
    13     5    28 1   
    14     6     9 1   
    15     6    31 1   
    16     6    32 1   
    17     7    33 1   
    18     7    34 1   
    19     8    11 2   
    20     9    10 2   
    21    10    11 1   
    22    10    35 1   
    23    11    50 1   
    24    12    13 1   
    25    12    17 1   
    26    12    50 1   
    27    13    38 1   
    28    13    39 1   
    29    13    40 1   
    30    14    21 1   
    31    14    25 1   
    32    15    23 ar  
    33    15    51 1   
    34    16    23 ar  
    35    16    24 ar  
    36    16    41 1   
    37    17    18 1   
    38    17    42 1   
    39    17    43 1   
    40    18    19 1   
    41    18    21 2   
    42    19    20 1   
    43    19    25 2   
    44    20    44 1   
    45    20    45 1   
    46    20    46 1   
    47    21    22 1   
    48    22    47 1   
    49    22    48 1   
    50    22    49 1   
    51    29    50 1   
    52    30    50 1   
    53    36    51 1   
    54    37    51 1   
@<TRIPOS>SUBSTRUCTURE
     1 ZSD         1 TEMP              0 ****  ****    0 ROOT
