@<TRIPOS>MOLECULE
ZSD
   51    54     1     0     0
SMALL
bcc


@<TRIPOS>ATOM
      1 N1          25.1610     2.5030    60.9210 nh         1 ZSD      -0.766300
      2 C7          25.6150     0.1050    61.0240 c6         1 ZSD       0.024300
      3 C8          25.7760     3.0930    59.8510 ca         1 ZSD       0.732200
      4 N2          24.2120    -0.0330    60.6930 na         1 ZSD       0.112400
      5 C9          27.1320     2.9320    59.5790 ca         1 ZSD      -0.518600
      6 C5          23.7180     2.3750    60.9700 c6         1 ZSD       0.277100
      7 C6          25.8120     1.4610    61.6880 c6         1 ZSD       0.188800
      8 N3          23.6860    -1.2110    60.3700 nc         1 ZSD      -0.514800
      9 C4          23.3170     0.9720    60.6320 cc         1 ZSD      -0.120600
     10 C3          22.1210     0.4000    60.2600 cd         1 ZSD      -0.296300
     11 C2          22.4110    -0.9700    60.1080 cd         1 ZSD       0.276600
     12 N           21.1410    -2.1220    58.2790 n3         1 ZSD      -0.723600
     13 C           22.2880    -2.2830    57.4120 c3         1 ZSD       0.156100
     14 O           18.7960    -1.3840    54.5440 os         1 ZSD      -0.124100
     15 C10         27.6540     3.6320    58.4870 ca         1 ZSD       0.738200
     16 C11         25.6120     4.4860    58.0720 ca         1 ZSD       0.722900
     17 C12         20.2800    -1.0270    57.8670 c3         1 ZSD       0.252100
     18 C13         19.5550    -1.3470    56.6060 cc         1 ZSD      -0.349900
     19 C14         18.5780    -2.3680    56.4250 cc         1 ZSD       0.363600
     20 C15         18.0810    -3.3290    57.4440 c3         1 ZSD      -0.131400
     21 C16         19.6440    -0.7740    55.3800 cd         1 ZSD       0.299000
     22 C17         20.4630     0.3320    54.8350 c3         1 ZSD      -0.137400
     23 N5          26.8800     4.4210    57.7210 nb         1 ZSD      -0.811000
     24 N6          25.0100     3.8820    59.0770 nb         1 ZSD      -0.812000
     25 N7          18.1340    -2.3820    55.2030 nd         1 ZSD      -0.373300
     26 H11         26.2180     0.0220    60.1170 h1         1 ZSD       0.073700
     27 H10         25.9040    -0.6990    61.7000 h1         1 ZSD       0.073700
     28 H12         27.7800     2.2940    60.1610 ha         1 ZSD       0.141000
     29 H4          20.5660    -2.0280    60.2650 h1         1 ZSD       0.063700
     30 H3          21.9680    -3.0330    59.9450 h1         1 ZSD       0.063700
     31 H7          23.2570     3.0790    60.2830 h1         1 ZSD       0.088700
     32 H6          23.3720     2.6280    61.9770 h1         1 ZSD       0.088700
     33 H9          26.8710     1.6650    61.8280 h1         1 ZSD       0.071700
     34 H8          25.3660     1.4550    62.6850 h1         1 ZSD       0.071700
     35 H5          21.1750     0.8970    60.1230 ha         1 ZSD       0.163000
     36 H14         29.3100     4.1020    57.3990 hn         1 ZSD       0.441300
     37 H13         29.6050     3.0380    58.7180 hn         1 ZSD       0.441300
     38 H1          21.9590    -2.4680    56.3890 h1         1 ZSD       0.034033
     39 H           22.9550    -1.4090    57.3960 h1         1 ZSD       0.034033
     40 H2          22.8730    -3.1460    57.7310 h1         1 ZSD       0.034033
     41 H15         24.9800     5.1190    57.4550 h5         1 ZSD       0.044100
     42 H16         19.5470    -0.8600    58.6620 h1         1 ZSD       0.040700
     43 H17         20.8270    -0.0790    57.7500 h1         1 ZSD       0.040700
     44 H20         17.2710    -3.9390    57.0510 hc         1 ZSD       0.056700
     45 H19         18.8880    -3.9840    57.7720 hc         1 ZSD       0.056700
     46 H18         17.7200    -2.7980    58.3250 hc         1 ZSD       0.056700
     47 H21         19.8400     1.1570    54.4880 hc         1 ZSD       0.061367
     48 H23         21.1350     0.7160    55.5990 hc         1 ZSD       0.061367
     49 H22         21.0670    -0.0040    53.9900 hc         1 ZSD       0.061367
     50 C1          21.4940    -2.0820    59.6890 c3         1 ZSD       0.146500
     51 N4          28.9470     3.5300    58.1400 nv         1 ZSD      -0.972500
@<TRIPOS>BOND
     1     1     3 1   
     2     1     6 1   
     3     1     7 1   
     4     2     4 1   
     5     2     7 1   
     6     2    26 1   
     7     2    27 1   
     8     3     5 ar  
     9     3    24 ar  
    10     4     8 1   
    11     4     9 1   
    12     5    15 ar  
    13     5    28 1   
    14     6     9 1   
    15     6    31 1   
    16     6    32 1   
    17     7    33 1   
    18     7    34 1   
    19     8    11 2   
    20     9    10 2   
    21    10    11 1   
    22    10    35 1   
    23    11    50 1   
    24    12    13 1   
    25    12    17 1   
    26    12    50 1   
    27    13    38 1   
    28    13    39 1   
    29    13    40 1   
    30    14    21 1   
    31    14    25 1   
    32    15    23 ar  
    33    15    51 1   
    34    16    23 ar  
    35    16    24 ar  
    36    16    41 1   
    37    17    18 1   
    38    17    42 1   
    39    17    43 1   
    40    18    19 1   
    41    18    21 2   
    42    19    20 1   
    43    19    25 2   
    44    20    44 1   
    45    20    45 1   
    46    20    46 1   
    47    21    22 1   
    48    22    47 1   
    49    22    48 1   
    50    22    49 1   
    51    29    50 1   
    52    30    50 1   
    53    36    51 1   
    54    37    51 1   
@<TRIPOS>SUBSTRUCTURE
     1 ZSD         1 TEMP              0 ****  ****    0 ROOT
