@<TRIPOS>MOLECULE
ZSG
   46    48     1     0     0
SMALL
bcc


@<TRIPOS>ATOM
      1 N1          32.3100     9.3930    68.7020 ns         1 ZSG      -0.563900
      2 C7          29.4720     8.6980    65.2310 cc         1 ZSG      -0.147600
      3 C8          28.4940     8.4650    64.1220 c6         1 ZSG       0.287100
      4 N2          28.9840     7.4200    63.2480 nh         1 ZSG      -0.774300
      5 C9          29.3390     6.2270    63.9920 c6         1 ZSG       0.198800
      6 C1          34.7280    12.2590    70.9430 c3         1 ZSG       0.150600
      7 C5          30.7360     9.3110    66.9140 cd         1 ZSG       0.256800
      8 C6          29.6780     9.7440    66.0990 cd         1 ZSG      -0.235300
      9 N3          30.3690     7.7440    65.5620 na         1 ZSG       0.132400
     10 C4          31.3610    10.0610    68.0280 c          1 ZSG       0.601600
     11 C3          33.0790     9.9650    69.7810 c3         1 ZSG       0.102000
     12 C2          34.4030    10.5450    69.2860 c3         1 ZSG       0.139800
     13 N4          31.1450     8.0990    66.5680 nc         1 ZSG      -0.517800
     14 N           35.2340    11.0300    70.3700 n3         1 ZSG      -0.716600
     15 C           36.6090    11.1920    69.9490 c3         1 ZSG       0.150600
     16 O           31.0020    11.2010    68.2900 o          1 ZSG      -0.602100
     17 C10         30.5600     6.4880    64.8620 c6         1 ZSG       0.022300
     18 C11         29.5380     7.6700    62.0280 ca         1 ZSG       0.750200
     19 C12         29.3710     8.8890    61.3410 ca         1 ZSG      -0.478600
     20 C13         29.9630     8.9670    60.1020 ca         1 ZSG       0.498200
     21 C14         30.7440     6.8690    60.2600 ca         1 ZSG       0.935900
     22 N5          30.6520     7.9850    59.5320 nb         1 ZSG      -0.793000
     23 N6          31.3970     5.8250    59.7060 nv         1 ZSG      -0.948500
     24 N7          30.2300     6.6800    61.4750 nb         1 ZSG      -0.862000
     25 H10         32.5510     8.4670    68.3840 hn         1 ZSG       0.329500
     26 H13         28.3090     9.3920    63.5890 h1         1 ZSG       0.076200
     27 H14         28.4830     5.9520    64.6140 h1         1 ZSG       0.081700
     28 H15         29.5400     5.4010    63.3170 h1         1 ZSG       0.081700
     29 H5          33.7240    12.1240    71.3460 h1         1 ZSG       0.031200
     30 H3          35.3660    12.5720    71.7720 h1         1 ZSG       0.031200
     31 H4          34.6890    13.0880    70.2190 h1         1 ZSG       0.031200
     32 H11         29.1440    10.6790    66.1380 ha         1 ZSG       0.181000
     33 H8          33.2810     9.1840    70.5160 h1         1 ZSG       0.062700
     34 H9          32.4710    10.7220    70.2730 h1         1 ZSG       0.062700
     35 H6          34.2040    11.3260    68.5320 h1         1 ZSG       0.037200
     36 H7          34.9450     9.7480    68.7700 h1         1 ZSG       0.037200
     37 H1          37.0050    10.2450    69.5790 h1         1 ZSG       0.031200
     38 H           36.7370    11.9440    69.1540 h1         1 ZSG       0.031200
     39 H2          37.2230    11.5020    70.7960 h1         1 ZSG       0.031200
     40 H16         30.6930     5.6920    65.5930 h1         1 ZSG       0.077200
     41 H17         31.4630     6.5500    64.2510 h1         1 ZSG       0.077200
     42 H18         28.8200     9.7310    61.7280 ha         1 ZSG       0.152000
     43 H19         29.8760     9.8850    59.5290 h4         1 ZSG       0.019100
     44 H20         31.9680     5.9950    58.8970 hn         1 ZSG       0.437300
     45 H21         31.6610     5.0550    60.2950 hn         1 ZSG       0.437300
     46 H12         27.5320     8.1520    64.5390 h1         1 ZSG       0.076200
@<TRIPOS>BOND
     1     1    10 1   
     2     1    11 1   
     3     1    25 1   
     4     2     3 1   
     5     2     8 2   
     6     2     9 1   
     7     3     4 1   
     8     3    26 1   
     9     3    46 1   
    10     4     5 1   
    11     4    18 1   
    12     5    17 1   
    13     5    27 1   
    14     5    28 1   
    15     6    14 1   
    16     6    29 1   
    17     6    30 1   
    18     6    31 1   
    19     7     8 1   
    20     7    10 1   
    21     7    13 2   
    22     8    32 1   
    23     9    13 1   
    24     9    17 1   
    25    10    16 2   
    26    11    12 1   
    27    11    33 1   
    28    11    34 1   
    29    12    14 1   
    30    12    35 1   
    31    12    36 1   
    32    14    15 1   
    33    15    37 1   
    34    15    38 1   
    35    15    39 1   
    36    17    40 1   
    37    17    41 1   
    38    18    19 ar  
    39    18    24 ar  
    40    19    20 ar  
    41    19    42 1   
    42    20    22 ar  
    43    20    43 1   
    44    21    22 ar  
    45    21    23 1   
    46    21    24 ar  
    47    23    44 1   
    48    23    45 1   
@<TRIPOS>SUBSTRUCTURE
     1 ZSG         1 TEMP              0 ****  ****    0 ROOT
