@<TRIPOS>MOLECULE
ZSG
   46    48     1     0     0
SMALL
No Charge or Current Charge


@<TRIPOS>ATOM
      1 N1          32.7160     9.3910    68.8740 ns         1 ZSG      -0.496900
      2 C7          30.8120     8.9500    64.6760 cc         1 ZSG      -0.198300
      3 C8          30.1450     8.9490    63.3280 c6         1 ZSG       0.287100
      4 N2          30.1610     7.6180    62.6360 nh         1 ZSG      -0.774300
      5 C9          30.4300     6.4250    63.5310 c6         1 ZSG       0.198800
      6 C1          34.0750    11.9880    72.2470 c3         1 ZSG       0.150600
      7 C5          31.6430     9.3910    66.7070 cd         1 ZSG       0.191500
      8 C6          30.8970     9.9240    65.6270 cd         1 ZSG      -0.152000
      9 N3          31.4990     7.8850    65.2100 na         1 ZSG       0.153800
     10 C4          31.9770    10.1350    67.9750 c          1 ZSG       0.534600
     11 C3          33.2050     9.8740    70.1720 c3         1 ZSG       0.102000
     12 C2          34.3760    10.8830    70.0390 c3         1 ZSG       0.139800
     13 N4          32.0210     8.1340    66.4630 nc         1 ZSG      -0.517800
     14 N           35.0050    11.2950    71.3240 n3         1 ZSG      -0.716600
     15 C           36.2490    12.0690    71.1100 c3         1 ZSG       0.150600
     16 O           31.6350    11.2890    68.2120 o          1 ZSG      -0.602100
     17 C10         31.6420     6.6200    64.4830 c6         1 ZSG       0.051600
     18 C11         29.5340     7.4630    61.3730 ca         1 ZSG       0.421900
     19 C12         29.2260     8.5630    60.5510 ca         1 ZSG      -0.330000
     20 C13         28.6070     8.3100    59.3180 ca         1 ZSG       0.169900
     21 C14         28.6510     6.0860    59.7820 ca         1 ZSG       0.409900
     22 N5          28.3150     7.0570    58.9250 nb         1 ZSG      -0.267000
     23 N6          28.3650     4.8220    59.3970 nv         1 ZSG      -1.058900
     24 N7          29.2410     6.2110    60.9730 nb         1 ZSG      -0.336000
     25 H10         32.9440     8.4460    68.5820 hn         1 ZSG       0.329500
     26 H13         30.6550     9.6950    62.7000 h1         1 ZSG       0.076200
     27 H14         29.5370     6.2130    64.1390 h1         1 ZSG       0.081700
     28 H15         30.6340     5.5200    62.9410 h1         1 ZSG       0.081700
     29 H5          33.2270    11.3450    72.5150 h1         1 ZSG       0.031200
     30 H3          34.5880    12.2610    73.1800 h1         1 ZSG       0.031200
     31 H4          33.6830    12.9070    71.7910 h1         1 ZSG       0.031200
     32 H11         30.4740    10.9220    65.5730 ha         1 ZSG       0.163000
     33 H8          33.5420     9.0100    70.7590 h1         1 ZSG       0.062700
     34 H9          32.3690    10.3420    70.7080 h1         1 ZSG       0.062700
     35 H6          34.0160    11.7710    69.5020 h1         1 ZSG       0.037200
     36 H7          35.1370    10.4130    69.4020 h1         1 ZSG       0.037200
     37 H1          36.9590    11.5020    70.4940 h1         1 ZSG       0.031200
     38 H           36.0360    13.0200    70.6040 h1         1 ZSG       0.031200
     39 H2          36.7380    12.2910    72.0680 h1         1 ZSG       0.031200
     40 H16         31.7030     5.7870    65.1950 h1         1 ZSG       0.077200
     41 H17         32.5710     6.6520    63.9010 h1         1 ZSG       0.077200
     42 H18         29.4550     9.5830    60.8360 ha         1 ZSG       0.134000
     43 H19         28.3450     9.1170    58.6350 h4         1 ZSG       0.019100
     44 H20         28.1370     4.6570    58.4200 hn         1 ZSG       0.492500
     45 H21         28.8020     4.0540    59.9010 hn         1 ZSG       0.492500
     46 H12         29.1050     9.2910    63.4420 h1         1 ZSG       0.076200
@<TRIPOS>BOND
     1     1    10 1   
     2     1    11 1   
     3     1    25 1   
     4     2     3 1   
     5     2     8 2   
     6     2     9 1   
     7     3     4 1   
     8     3    26 1   
     9     3    46 1   
    10     4     5 1   
    11     4    18 1   
    12     5    17 1   
    13     5    27 1   
    14     5    28 1   
    15     6    14 1   
    16     6    29 1   
    17     6    30 1   
    18     6    31 1   
    19     7     8 1   
    20     7    10 1   
    21     7    13 2   
    22     8    32 1   
    23     9    13 1   
    24     9    17 1   
    25    10    16 2   
    26    11    12 1   
    27    11    33 1   
    28    11    34 1   
    29    12    14 1   
    30    12    35 1   
    31    12    36 1   
    32    14    15 1   
    33    15    37 1   
    34    15    38 1   
    35    15    39 1   
    36    17    40 1   
    37    17    41 1   
    38    18    19 ar  
    39    18    24 ar  
    40    19    20 ar  
    41    19    42 1   
    42    20    22 ar  
    43    20    43 1   
    44    21    22 ar  
    45    21    23 1   
    46    21    24 ar  
    47    23    44 1   
    48    23    45 1   
@<TRIPOS>SUBSTRUCTURE
     1 ZSG         1 TEMP              0 ****  ****    0 ROOT
