@<TRIPOS>MOLECULE
ZSJ
   28    28     1     0     0
SMALL
bcc


@<TRIPOS>ATOM
      1 C7          20.7620    -0.1450    61.4820 c3         1 ZSJ      -0.027000
      2 C8          23.4170     1.3270    61.4020 ca         1 ZSJ      -0.128500
      3 C9          24.5700     2.0990    61.4910 ca         1 ZSJ      -0.106500
      4 C1          26.0250     4.5820    59.5020 c3         1 ZSJ       0.160800
      5 C5          24.4750    -0.0070    59.7090 ca         1 ZSJ      -0.128500
      6 C6          23.3600     0.2630    60.5080 ca         1 ZSJ       0.039900
      7 C4          25.6130     0.7720    59.8090 ca         1 ZSJ      -0.106500
      8 C3          25.6850     1.8390    60.7050 ca         1 ZSJ      -0.132300
      9 C2          26.9220     2.7050    60.7700 c3         1 ZSJ       0.208100
     10 N           27.1020     3.6240    59.6600 n7         1 ZSJ      -0.807200
     11 C           26.3540     5.6170    58.4480 c3         1 ZSJ       0.136400
     12 O           26.4380     4.9790    57.1910 oh         1 ZSJ      -0.604800
     13 S           21.9630    -0.7900    60.3050 ss         1 ZSJ      -0.243000
     14 H11         19.8830    -0.7800    61.3890 h1         1 ZSJ       0.065367
     15 H10         21.1270    -0.2050    62.5060 h1         1 ZSJ       0.065367
     16 H12         20.4760     0.8790    61.2480 h1         1 ZSJ       0.065367
     17 H13         22.5760     1.5700    62.0360 ha         1 ZSJ       0.136000
     18 H14         24.5950     2.9240    62.1940 ha         1 ZSJ       0.129500
     19 H3          25.8910     5.1060    60.4530 h1         1 ZSJ       0.038200
     20 H4          25.0540     4.1220    59.2650 h1         1 ZSJ       0.038200
     21 H9          24.4520    -0.8340    59.0080 ha         1 ZSJ       0.136000
     22 H8          26.4650     0.5380    59.1790 ha         1 ZSJ       0.129500
     23 H7          27.8080     2.0680    60.8200 h1         1 ZSJ       0.056200
     24 H6          26.9040     3.2870    61.6960 h1         1 ZSJ       0.056200
     25 H15         27.2210     3.1000    58.8020 hn         1 ZSJ       0.370800
     26 H1          27.2980     6.1080    58.7150 h1         1 ZSJ       0.024700
     27 H2          25.5720     6.3870    58.4580 h1         1 ZSJ       0.024700
     28 H           26.6930     5.6330    56.5350 ho         1 ZSJ       0.404000
@<TRIPOS>BOND
     1     1    13 1   
     2     1    14 1   
     3     1    15 1   
     4     1    16 1   
     5     2     3 ar  
     6     2     6 ar  
     7     2    17 1   
     8     3     8 ar  
     9     3    18 1   
    10     4    10 1   
    11     4    11 1   
    12     4    19 1   
    13     4    20 1   
    14     5     6 ar  
    15     5     7 ar  
    16     5    21 1   
    17     6    13 1   
    18     7     8 ar  
    19     7    22 1   
    20     8     9 1   
    21     9    10 1   
    22     9    23 1   
    23     9    24 1   
    24    10    25 1   
    25    11    12 1   
    26    11    26 1   
    27    11    27 1   
    28    12    28 1   
@<TRIPOS>SUBSTRUCTURE
     1 ZSJ         1 TEMP              0 ****  ****    0 ROOT
