@<TRIPOS>MOLECULE
ZSJ
   28    28     1     0     0
SMALL
No Charge or Current Charge


@<TRIPOS>ATOM
      1 C7          20.6850    -0.1300    61.3960 c3         1 ZSJ       0.020900
      2 C8          23.4460     1.3280    61.3730 ca         1 ZSJ      -0.110500
      3 C9          24.6090     2.1060    61.5060 ca         1 ZSJ      -0.088500
      4 C1          26.1140     4.7120    59.6790 c3         1 ZSJ       0.160800
      5 C5          24.5380     0.0000    59.6560 ca         1 ZSJ      -0.110500
      6 C6          23.4040     0.2670    60.4430 ca         1 ZSJ      -0.087000
      7 C4          25.7010     0.7790    59.7890 ca         1 ZSJ      -0.088500
      8 C3          25.7430     1.8390    60.7150 ca         1 ZSJ      -0.132300
      9 C2          27.0050     2.6820    60.8610 c3         1 ZSJ       0.208100
     10 N           27.1410     3.6440    59.7490 n7         1 ZSJ      -0.862400
     11 C           26.2790     5.5740    58.3960 c3         1 ZSJ       0.159600
     12 O           26.1950     4.7590    57.2110 oh         1 ZSJ      -0.667000
     13 S           21.9540    -0.7720    60.2160 ss         1 ZSJ      -0.164000
     14 H11         19.7680    -0.7260    61.3040 h1         1 ZSJ       0.065367
     15 H10         21.0590    -0.2060    62.4240 h1         1 ZSJ       0.065367
     16 H12         20.4550     0.9170    61.1630 h1         1 ZSJ       0.065367
     17 H13         22.5910     1.5640    61.9990 ha         1 ZSJ       0.118000
     18 H14         24.6270     2.9220    62.2260 ha         1 ZSJ       0.111500
     19 H3          26.1810     5.3670    60.5580 h1         1 ZSJ       0.038200
     20 H4          25.1040     4.2800    59.6700 h1         1 ZSJ       0.038200
     21 H9          24.5190    -0.8150    58.9370 ha         1 ZSJ       0.118000
     22 H8          26.5690     0.5570    59.1720 ha         1 ZSJ       0.111500
     23 H7          27.8720     2.0070    60.8820 h1         1 ZSJ       0.056200
     24 H6          26.9890     3.2070    61.8270 h1         1 ZSJ       0.056200
     25 H15         27.0750     3.1190    58.8680 hn         1 ZSJ       0.426000
     26 H1          27.2480     6.0890    58.4350 h1         1 ZSJ       0.024700
     27 H2          25.4950     6.3430    58.3850 h1         1 ZSJ       0.024700
     28 H           26.3380     5.3570    56.4440 ho         1 ZSJ       0.443000
@<TRIPOS>BOND
     1     1    13 1   
     2     1    14 1   
     3     1    15 1   
     4     1    16 1   
     5     2     3 ar  
     6     2     6 ar  
     7     2    17 1   
     8     3     8 ar  
     9     3    18 1   
    10     4    10 1   
    11     4    11 1   
    12     4    19 1   
    13     4    20 1   
    14     5     6 ar  
    15     5     7 ar  
    16     5    21 1   
    17     6    13 1   
    18     7     8 ar  
    19     7    22 1   
    20     8     9 1   
    21     9    10 1   
    22     9    23 1   
    23     9    24 1   
    24    10    25 1   
    25    11    12 1   
    26    11    26 1   
    27    11    27 1   
    28    12    28 1   
@<TRIPOS>SUBSTRUCTURE
     1 ZSJ         1 TEMP              0 ****  ****    0 ROOT
