@<TRIPOS>MOLECULE
ZSL
   58    62     1     0     0
SMALL
abcg2


@<TRIPOS>ATOM
      1 C15        192.3720   184.6340   135.1940 c5         1 ZSL       0.097300
      2 C17        192.1260   183.9700   132.9510 c5         1 ZSL       0.137300
      3 C20        184.3290   180.4440   134.2160 c5         1 ZSL       0.329300
      4 C21        184.9520   179.1570   134.8030 c5         1 ZSL       0.124300
      5 C22        196.6550   185.4700   130.2880 ca         1 ZSL       0.157900
      6 C24        185.3580   181.0210   136.1970 c5         1 ZSL       0.087300
      7 C26        186.8100   181.3730   135.9150 c3         1 ZSL       0.212600
      8 C28        197.5070   183.3850   130.7580 ca         1 ZSL       0.437900
      9 C14        192.4860   183.3690   136.0450 c3         1 ZSL       0.232600
     10 C16        191.3210   184.6050   134.0820 c5         1 ZSL       0.118300
     11 C18        193.4870   184.6390   133.1440 c5         1 ZSL       0.302300
     12 C19        183.0790   178.3040   133.7150 c5         1 ZSL       0.315600
     13 C23        185.1420   179.5120   136.2840 c5         1 ZSL       0.135300
     14 C25        195.5370   184.2680   131.7460 ca         1 ZSL       0.132500
     15 C27        196.4290   183.2120   131.6460 ca         1 ZSL      -0.096600
     16 C29        194.9790   182.6070   133.0540 cc         1 ZSL       0.434700
     17 N03        197.5870   184.5410   130.0890 nb         1 ZSL      -0.323000
     18 N04        195.6050   185.4230   131.0880 nb         1 ZSL      -0.192000
     19 N06        196.0620   182.1830   132.4750 nd         1 ZSL      -0.590100
     20 N07        194.6010   183.8620   132.6550 na         1 ZSL      -0.267300
     21 O31        190.9500   185.8990   133.6750 oh         1 ZSL      -0.729000
     22 O32        191.6790   184.1880   131.6500 oh         1 ZSL      -0.706000
     23 O33        193.6220   184.8400   134.5220 os         1 ZSL      -0.475000
     24 O34        184.1230   178.0460   134.6090 os         1 ZSL      -0.426000
     25 O35        183.9770   179.1710   136.9820 oh         1 ZSL      -0.707000
     26 O36        184.5040   181.4650   135.1440 os         1 ZSL      -0.387000
     27 O37        186.9600   182.7530   135.6770 os         1 ZSL      -0.592400
     28 O38        187.0740   185.1540   136.3780 o          1 ZSL      -0.843500
     29 O39        186.9370   183.2760   138.1920 o          1 ZSL      -0.843500
     30 O43        191.4600   183.2880   137.0070 os         1 ZSL      -0.586400
     31 P44        187.4160   183.7860   136.8690 p5         1 ZSL       1.469800
     32 P45        190.0870   182.4070   136.7840 p5         1 ZSL       1.461800
     33 S46        182.5640   180.0290   133.9710 ss         1 ZSL      -0.524000
     34 H1         192.2010   185.4840   135.8640 h1         1 ZSL       0.088700
     35 H2         192.2140   182.8960   133.1690 h1         1 ZSL       0.063700
     36 H4         185.9280   178.9780   134.3380 h1         1 ZSL       0.079700
     37 H5         196.7800   186.3830   129.7160 h5         1 ZSL       0.032100
     38 H6         185.0480   181.5310   137.1130 h1         1 ZSL       0.116700
     39 H7         187.1740   180.8470   135.0270 h1         1 ZSL       0.041200
     40 H8         187.4150   181.0200   136.7560 h1         1 ZSL       0.041200
     41 H9         192.5200   182.4760   135.4150 h1         1 ZSL       0.018700
     42 H10        193.4340   183.4180   136.5860 h1         1 ZSL       0.018700
     43 H11        190.4510   183.9990   134.3510 h1         1 ZSL       0.132700
     44 H12        193.5210   185.5860   132.5950 h2         1 ZSL       0.111700
     45 H13        182.2460   177.6340   133.9260 h2         1 ZSL       0.050700
     46 H14        183.3950   178.1650   132.6760 h2         1 ZSL       0.050700
     47 H15        186.0250   179.0110   136.7010 h1         1 ZSL       0.064700
     48 H16        194.4130   182.0480   133.7850 h5         1 ZSL       0.083800
     49 H19        190.4760   186.3170   134.4000 ho         1 ZSL       0.526000
     50 H20        190.9180   183.6220   131.4860 ho         1 ZSL       0.519000
     51 H21        184.0930   179.4390   137.9000 ho         1 ZSL       0.506000
     52 N05        198.4380   182.4510   130.5600 nv         1 ZSL      -1.081900
     53 O40        189.0590   183.6890   136.7850 os         1 ZSL      -0.725800
     54 O41        190.1050   181.7760   135.4240 o          1 ZSL      -0.853000
     55 O42        189.8760   181.5840   138.0140 o          1 ZSL      -0.853000
     56 H3         184.7680   180.7190   133.2540 h2         1 ZSL       0.079700
     57 H17        199.2130   182.6310   129.9450 hn         1 ZSL       0.496500
     58 H18        198.4290   181.5890   131.0770 hn         1 ZSL       0.496500
@<TRIPOS>BOND
     1     1     9 1   
     2     1    10 1   
     3     1    23 1   
     4     1    34 1   
     5     2    10 1   
     6     2    11 1   
     7     2    22 1   
     8     2    35 1   
     9     3     4 1   
    10     3    26 1   
    11     3    33 1   
    12     3    56 1   
    13     4    13 1   
    14     4    24 1   
    15     4    36 1   
    16     5    17 ar  
    17     5    18 ar  
    18     5    37 1   
    19     6     7 1   
    20     6    13 1   
    21     6    26 1   
    22     6    38 1   
    23     7    27 1   
    24     7    39 1   
    25     7    40 1   
    26     8    15 ar  
    27     8    17 ar  
    28     8    52 1   
    29     9    30 1   
    30     9    41 1   
    31     9    42 1   
    32    10    21 1   
    33    10    43 1   
    34    11    20 1   
    35    11    23 1   
    36    11    44 1   
    37    12    24 1   
    38    12    33 1   
    39    12    45 1   
    40    12    46 1   
    41    13    25 1   
    42    13    47 1   
    43    14    15 ar  
    44    14    18 ar  
    45    14    20 1   
    46    15    19 1   
    47    16    19 2   
    48    16    20 1   
    49    16    48 1   
    50    21    49 1   
    51    22    50 1   
    52    25    51 1   
    53    27    31 1   
    54    28    31 1   
    55    29    31 1   
    56    30    32 1   
    57    31    53 1   
    58    32    53 1   
    59    32    54 1   
    60    32    55 1   
    61    52    57 1   
    62    52    58 1   
@<TRIPOS>SUBSTRUCTURE
     1 ZSL         1 TEMP              0 ****  ****    0 ROOT
