@<TRIPOS>MOLECULE
ZSL
   58    62     1     0     0
SMALL
No Charge or Current Charge


@<TRIPOS>ATOM
      1 C15        191.5530   184.4140   133.4940 c5         1 ZSL       0.097300
      2 C17        191.3610   182.7480   131.6830 c5         1 ZSL       0.137300
      3 C20        184.4460   181.3320   135.3270 c5         1 ZSL       0.329300
      4 C21        184.7890   179.9670   134.6340 c5         1 ZSL       0.124300
      5 C22        196.5550   185.6980   132.2220 ca         1 ZSL       0.157900
      6 C24        186.4940   180.6700   136.1830 c5         1 ZSL       0.087300
      7 C26        187.4460   181.4970   135.2510 c3         1 ZSL       0.212600
      8 C28        197.2750   183.6510   132.9470 ca         1 ZSL       0.437900
      9 C14        192.5490   184.4850   134.6880 c3         1 ZSL       0.232600
     10 C16        190.9860   182.9820   133.1870 c5         1 ZSL       0.118300
     11 C18        192.6040   183.6920   131.5270 c5         1 ZSL       0.302300
     12 C19        182.4390   179.9330   134.5320 c5         1 ZSL       0.315600
     13 C23        185.9410   179.3570   135.5320 c5         1 ZSL       0.135300
     14 C25        195.0390   183.9820   132.1770 ca         1 ZSL       0.132500
     15 C27        195.9910   183.1300   132.6800 ca         1 ZSL      -0.096600
     16 C29        194.2270   181.9210   132.4360 cc         1 ZSL       0.434700
     17 N03        197.5630   184.9430   132.7220 nb         1 ZSL      -0.323000
     18 N04        195.2980   185.2830   131.9330 nb         1 ZSL      -0.192000
     19 N06        195.5040   181.8310   132.8530 nd         1 ZSL      -0.590100
     20 N07        193.9080   183.2250   132.0270 na         1 ZSL      -0.267300
     21 O31        189.5580   182.9270   133.3640 oh         1 ZSL      -0.729000
     22 O32        190.2420   183.1410   130.8780 oh         1 ZSL      -0.706000
     23 O33        192.1920   184.8610   132.2710 os         1 ZSL      -0.475000
     24 O34        183.6110   179.1080   134.6580 os         1 ZSL      -0.426000
     25 O35        185.4820   178.4340   136.5450 oh         1 ZSL      -0.707000
     26 O36        185.2770   181.3990   136.4980 os         1 ZSL      -0.387000
     27 O37        187.5230   182.8670   135.6850 os         1 ZSL      -0.592400
     28 O38        187.9500   184.5450   137.5300 o          1 ZSL      -0.843500
     29 O39        188.6920   182.1790   137.8370 o          1 ZSL      -0.843500
     30 O43        191.8440   184.7910   135.9010 os         1 ZSL      -0.586400
     31 P44        188.4970   183.3130   136.8890 p5         1 ZSL       1.469800
     32 P45        191.0840   183.6670   136.7750 p5         1 ZSL       1.461800
     33 S46        182.6600   181.2510   135.8110 ss         1 ZSL      -0.524000
     34 H1         190.7400   185.1220   133.7050 h1         1 ZSL       0.088700
     35 H2         191.6120   181.6970   131.4830 h1         1 ZSL       0.063700
     36 H4         185.1090   180.1260   133.5950 h1         1 ZSL       0.079700
     37 H5         196.7770   186.7470   132.0340 h5         1 ZSL       0.032100
     38 H6         187.0280   180.4520   137.1160 h1         1 ZSL       0.116700
     39 H7         187.0770   181.4610   134.2180 h1         1 ZSL       0.041200
     40 H8         188.4390   181.0270   135.2520 h1         1 ZSL       0.041200
     41 H9         193.1110   183.5470   134.7730 h1         1 ZSL       0.018700
     42 H10        193.2770   185.2820   134.4880 h1         1 ZSL       0.018700
     43 H11        191.4860   182.2300   133.8200 h1         1 ZSL       0.132700
     44 H12        192.7650   183.9470   130.4720 h2         1 ZSL       0.111700
     45 H13        181.5310   179.3510   134.7320 h2         1 ZSL       0.050700
     46 H14        182.4070   180.3910   133.5350 h2         1 ZSL       0.050700
     47 H15        186.7060   178.8760   134.9040 h1         1 ZSL       0.064700
     48 H16        193.5130   181.1060   132.4150 h5         1 ZSL       0.083800
     49 H19        189.3970   183.1980   134.3150 ho         1 ZSL       0.526000
     50 H20        189.5270   183.1980   131.5690 ho         1 ZSL       0.519000
     51 H21        186.2760   177.9890   136.9240 ho         1 ZSL       0.506000
     52 N05        198.2860   182.8950   133.4500 nv         1 ZSL      -1.081900
     53 O40        189.7320   183.6220   135.9540 os         1 ZSL      -0.725800
     54 O41        191.8150   182.3700   136.6940 o          1 ZSL      -0.853000
     55 O42        190.9790   184.1780   138.1730 o          1 ZSL      -0.853000
     56 H3         184.6400   182.1780   134.6540 h2         1 ZSL       0.079700
     57 H17        199.0690   183.3750   133.8860 hn         1 ZSL       0.496500
     58 H18        198.0360   181.9860   133.8320 hn         1 ZSL       0.496500
@<TRIPOS>BOND
     1     1     9 1   
     2     1    10 1   
     3     1    23 1   
     4     1    34 1   
     5     2    10 1   
     6     2    11 1   
     7     2    22 1   
     8     2    35 1   
     9     3     4 1   
    10     3    26 1   
    11     3    33 1   
    12     3    56 1   
    13     4    13 1   
    14     4    24 1   
    15     4    36 1   
    16     5    17 ar  
    17     5    18 ar  
    18     5    37 1   
    19     6     7 1   
    20     6    13 1   
    21     6    26 1   
    22     6    38 1   
    23     7    27 1   
    24     7    39 1   
    25     7    40 1   
    26     8    15 ar  
    27     8    17 ar  
    28     8    52 1   
    29     9    30 1   
    30     9    41 1   
    31     9    42 1   
    32    10    21 1   
    33    10    43 1   
    34    11    20 1   
    35    11    23 1   
    36    11    44 1   
    37    12    24 1   
    38    12    33 1   
    39    12    45 1   
    40    12    46 1   
    41    13    25 1   
    42    13    47 1   
    43    14    15 ar  
    44    14    18 ar  
    45    14    20 1   
    46    15    19 1   
    47    16    19 2   
    48    16    20 1   
    49    16    48 1   
    50    21    49 1   
    51    22    50 1   
    52    25    51 1   
    53    27    31 1   
    54    28    31 1   
    55    29    31 1   
    56    30    32 1   
    57    31    53 1   
    58    32    53 1   
    59    32    54 1   
    60    32    55 1   
    61    52    57 1   
    62    52    58 1   
@<TRIPOS>SUBSTRUCTURE
     1 ZSL         1 TEMP              0 ****  ****    0 ROOT
