@<TRIPOS>MOLECULE
ZSM
   30    30     1     0     0
SMALL
bcc


@<TRIPOS>ATOM
      1 N1           7.3970     1.9800    64.0840 n2         1 ZSM      -0.819100
      2 C7          11.0760    -6.4840    61.6050 c2         1 ZSM       0.665100
      3 C8           8.1580    -4.1520    61.3670 ca         1 ZSM      -0.108500
      4 N2           9.9020    -7.0150    62.0340 nv         1 ZSM      -0.938800
      5 C9           7.8710    -3.0360    62.1420 ca         1 ZSM      -0.108500
      6 C1           8.2750    -0.6520    62.8150 c3         1 ZSM       0.060500
      7 C5           9.1670    -4.1120    60.4120 ca         1 ZSM      -0.077300
      8 C6           9.4760    -5.3160    59.5770 c3         1 ZSM       0.060500
      9 N3          12.1430    -6.2880    62.2680 n2         1 ZSM      -0.819100
     10 C4           9.8840    -2.9280    60.2480 ca         1 ZSM      -0.108500
     11 C3           9.5990    -1.8160    61.0200 ca         1 ZSM      -0.108500
     12 C2           8.5930    -1.8600    61.9850 ca         1 ZSM      -0.077300
     13 N            6.3110     2.8280    62.2390 nv         1 ZSM      -0.938800
     14 C            7.0000     1.8450    62.8860 c2         1 ZSM       0.665100
     15 S            7.1540     0.4020    61.8430 ss         1 ZSM      -0.306300
     16 S1          11.1380    -6.0010    59.8930 ss         1 ZSM      -0.306300
     17 H            7.8050     1.1430    64.4750 hn         1 ZSM       0.384900
     18 H14          7.5910    -5.0630    61.5120 ha         1 ZSM       0.136750
     19 H12          9.8900    -7.4180    62.9590 hn         1 ZSM       0.413550
     20 H13          9.3100    -7.4910    61.3730 hn         1 ZSM       0.413550
     21 H15          7.0810    -3.0890    62.8820 ha         1 ZSM       0.136750
     22 H7           9.1770    -0.0870    63.0520 h1         1 ZSM       0.073450
     23 H6           7.7860    -0.9450    63.7430 h1         1 ZSM       0.073450
     24 H10          8.7130    -6.0860    59.6850 h1         1 ZSM       0.073450
     25 H11          9.5140    -5.0570    58.5170 h1         1 ZSM       0.073450
     26 H2          12.0770    -6.6980    63.1970 hn         1 ZSM       0.384900
     27 H9          10.6790    -2.8780    59.5130 ha         1 ZSM       0.136750
     28 H8          10.1650    -0.9040    60.8780 ha         1 ZSM       0.136750
     29 H5           6.3840     2.8880    61.2370 hn         1 ZSM       0.413550
     30 H4           6.3030     3.7230    62.7030 hn         1 ZSM       0.413550
@<TRIPOS>BOND
     1     1    14 2   
     2     1    17 1   
     3     2     4 1   
     4     2     9 2   
     5     2    16 1   
     6     3     5 ar  
     7     3     7 ar  
     8     3    18 1   
     9     4    19 1   
    10     4    20 1   
    11     5    12 ar  
    12     5    21 1   
    13     6    12 1   
    14     6    15 1   
    15     6    22 1   
    16     6    23 1   
    17     7     8 1   
    18     7    10 ar  
    19     8    16 1   
    20     8    24 1   
    21     8    25 1   
    22     9    26 1   
    23    10    11 ar  
    24    10    27 1   
    25    11    12 ar  
    26    11    28 1   
    27    13    14 1   
    28    13    29 1   
    29    13    30 1   
    30    14    15 1   
@<TRIPOS>SUBSTRUCTURE
     1 ZSM         1 TEMP              0 ****  ****    0 ROOT
