@<TRIPOS>MOLECULE
ZSM
   30    30     1     0     0
SMALL
No Charge or Current Charge


@<TRIPOS>ATOM
      1 N1           7.5530     2.1360    63.9950 n2         1 ZSM      -0.819100
      2 C7          10.8820    -6.5680    61.7820 c2         1 ZSM       0.665100
      3 C8           8.3440    -4.0990    61.4300 ca         1 ZSM      -0.090500
      4 N2           9.7790    -7.3260    61.9150 nv         1 ZSM      -1.049200
      5 C9           8.0670    -2.9370    62.1720 ca         1 ZSM      -0.090500
      6 C1           8.4380    -0.4760    62.6890 c3         1 ZSM       0.108400
      7 C5           9.2960    -4.0690    60.3930 ca         1 ZSM      -0.077300
      8 C6           9.6000    -5.3250    59.5850 c3         1 ZSM       0.108400
      9 N3          11.7000    -6.3890    62.7210 n2         1 ZSM      -0.819100
     10 C4           9.9660    -2.8650    60.1060 ca         1 ZSM      -0.090500
     11 C3           9.6890    -1.7040    60.8480 ca         1 ZSM      -0.090500
     12 C2           8.7380    -1.7330    61.8860 ca         1 ZSM      -0.077300
     13 N            5.8940     2.6960    62.5510 nv         1 ZSM      -1.049200
     14 C            6.8650     1.8760    62.9730 c2         1 ZSM       0.665100
     15 S            7.0650     0.4810    61.9000 ss         1 ZSM      -0.354200
     16 S1          11.2060    -6.0810    60.1120 ss         1 ZSM      -0.354200
     17 H            8.2430     1.3890    64.1240 hn         1 ZSM       0.384900
     18 H14          7.8190    -5.0220    61.6640 ha         1 ZSM       0.118750
     19 H12          9.8220    -7.9950    62.6740 hn         1 ZSM       0.468750
     20 H13          9.4530    -7.7180    61.0420 hn         1 ZSM       0.468750
     21 H15          7.3270    -2.9740    62.9690 ha         1 ZSM       0.118750
     22 H7           9.3370     0.1520    62.7410 h1         1 ZSM       0.073450
     23 H6           8.1480    -0.7520    63.7110 h1         1 ZSM       0.073450
     24 H10          8.7890    -6.0550    59.6940 h1         1 ZSM       0.073450
     25 H11          9.6690    -5.0630    58.5210 h1         1 ZSM       0.073450
     26 H2          11.3030    -6.7950    63.5750 hn         1 ZSM       0.384900
     27 H9          10.7050    -2.8290    59.3080 ha         1 ZSM       0.118750
     28 H8          10.2130    -0.7800    60.6140 ha         1 ZSM       0.118750
     29 H5           5.7100     2.6170    61.5580 hn         1 ZSM       0.468750
     30 H4           6.0000     3.6420    62.8960 hn         1 ZSM       0.468750
@<TRIPOS>BOND
     1     1    14 2   
     2     1    17 1   
     3     2     4 1   
     4     2     9 2   
     5     2    16 1   
     6     3     5 ar  
     7     3     7 ar  
     8     3    18 1   
     9     4    19 1   
    10     4    20 1   
    11     5    12 ar  
    12     5    21 1   
    13     6    12 1   
    14     6    15 1   
    15     6    22 1   
    16     6    23 1   
    17     7     8 1   
    18     7    10 ar  
    19     8    16 1   
    20     8    24 1   
    21     8    25 1   
    22     9    26 1   
    23    10    11 ar  
    24    10    27 1   
    25    11    12 ar  
    26    11    28 1   
    27    13    14 1   
    28    13    29 1   
    29    13    30 1   
    30    14    15 1   
@<TRIPOS>SUBSTRUCTURE
     1 ZSM         1 TEMP              0 ****  ****    0 ROOT
