@<TRIPOS>MOLECULE
ZSN
   15    14     1     0     0
SMALL
No Charge or Current Charge


@<TRIPOS>ATOM
      1 N           -1.1740     1.8760     0.3840 n8         1 ZSN      -0.610800
      2 C           -1.4400    -0.6300    -0.1090 c          1 ZSN       1.026600
      3 O           -0.9430    -1.7460    -0.0210 o          1 ZSN      -0.823300
      4 CB           0.6980     0.2940     0.8740 c3         1 ZSN       0.013000
      5 CG           1.7630    -0.1030    -0.1840 c          1 ZSN       0.652100
      6 OD1          1.5790    -0.1050    -1.3920 o          1 ZSN      -0.614100
      7 NA          -0.6910     0.5070     0.3610 n          1 ZSN      -0.385200
      8 ND2          2.9820    -0.4330     0.3050 nt         1 ZSN      -0.690000
      9 OXT         -2.5680    -0.4420    -0.5490 o          1 ZSN      -0.823300
     10 H2          -1.1610     2.2440     1.3410 hn         1 ZSN       0.301800
     11 H           -0.5750     2.4760    -0.1940 hn         1 ZSN       0.301800
     12 HB1C         0.6770    -0.4910     1.6400 h1         1 ZSN       0.035200
     13 HB2C         1.0530     1.2090     1.3660 h1         1 ZSN       0.035200
     14 HD21         3.1460    -0.4250     1.3010 hn         1 ZSN       0.291000
     15 HD22         3.7170    -0.6910    -0.3380 hn         1 ZSN       0.291000
@<TRIPOS>BOND
     1     1     7 1   
     2     1    10 1   
     3     1    11 1   
     4     2     3 1   
     5     2     7 1   
     6     2     9 1   
     7     4     5 1   
     8     4     7 1   
     9     4    12 1   
    10     4    13 1   
    11     5     6 2   
    12     5     8 1   
    13     8    14 1   
    14     8    15 1   
@<TRIPOS>SUBSTRUCTURE
     1 ZSN         1 TEMP              0 ****  ****    0 ROOT
