@<TRIPOS>MOLECULE
ZSN
   15    14     1     0     0
SMALL
bcc


@<TRIPOS>ATOM
      1 N           -1.0950     1.7560     0.2390 n8         1 ZSN      -0.610800
      2 C           -1.2970    -0.6260    -0.0320 c          1 ZSN       1.026600
      3 O           -0.6900    -1.7100     0.1130 o          1 ZSN      -0.823300
      4 CB           0.6710     0.3120     1.0430 c3         1 ZSN       0.013000
      5 CG           1.6310     0.0810    -0.1170 c          1 ZSN       0.652100
      6 OD1          1.3710     0.4420    -1.2560 o          1 ZSN      -0.614100
      7 NA          -0.6940     0.4780     0.6240 n          1 ZSN      -0.385200
      8 ND2          2.7950    -0.4930     0.2220 nt         1 ZSN      -0.690000
      9 OXT         -2.3580    -0.4320    -0.6470 o          1 ZSN      -0.823300
     10 H2          -1.0420     2.3680     1.0440 hn         1 ZSN       0.301800
     11 H           -0.4570     2.1270    -0.4590 hn         1 ZSN       0.301800
     12 HB1C         0.7640    -0.4970     1.7680 h1         1 ZSN       0.035200
     13 HB2C         0.9910     1.2230     1.5600 h1         1 ZSN       0.035200
     14 HD21         2.9670    -0.8310     1.1530 hn         1 ZSN       0.291000
     15 HD22         3.5080    -0.6590    -0.4690 hn         1 ZSN       0.291000
@<TRIPOS>BOND
     1     1     7 1   
     2     1    10 1   
     3     1    11 1   
     4     2     3 1   
     5     2     7 1   
     6     2     9 1   
     7     4     5 1   
     8     4     7 1   
     9     4    12 1   
    10     4    13 1   
    11     5     6 2   
    12     5     8 1   
    13     8    14 1   
    14     8    15 1   
@<TRIPOS>SUBSTRUCTURE
     1 ZSN         1 TEMP              0 ****  ****    0 ROOT
