@<TRIPOS>MOLECULE
ZSO
   44    47     1     0     0
SMALL
bcc


@<TRIPOS>ATOM
      1 F            3.9100    -4.3240     0.4690 f          1 ZSO      -0.143900
      2 C            3.6080    -3.0330     0.2460 ca         1 ZSO       0.135900
      3 C5           3.3810    -2.6100    -1.0480 ca         1 ZSO      -0.167500
      4 C4           3.0670    -1.2730    -1.2610 ca         1 ZSO      -0.099500
      5 C3           2.9810    -0.3670    -0.2070 ca         1 ZSO      -0.097300
      6 C2           3.2220    -0.8370     1.0830 ca         1 ZSO      -0.099500
      7 C1           3.5350    -2.1670     1.3210 ca         1 ZSO      -0.167500
      8 C6           2.6470     1.0810    -0.4640 c6         1 ZSO      -0.012400
      9 C10          1.3270     1.5240     0.1930 c6         1 ZSO      -0.095700
     10 C9           1.0830     3.0120    -0.0980 c6         1 ZSO       0.153800
     11 N            2.1770     3.8890     0.2750 n7         1 ZSO      -0.790200
     12 C8           3.4360     3.4660    -0.3130 c6         1 ZSO       0.147800
     13 C7           3.7840     2.0100    -0.0250 c6         1 ZSO      -0.108400
     14 C11          0.1770     0.6660    -0.3030 c3         1 ZSO       0.150400
     15 O           -1.0050     1.0800     0.3590 os         1 ZSO      -0.334900
     16 C12         -2.1800     0.4740     0.0730 ca         1 ZSO       0.121100
     17 C18         -3.2840     0.9070     0.7640 ca         1 ZSO      -0.131000
     18 C17         -4.5240     0.2970     0.4860 ca         1 ZSO      -0.107000
     19 C15         -4.6310    -0.7390    -0.4830 ca         1 ZSO      -0.095000
     20 C14         -3.4830    -1.1680    -1.1800 ca         1 ZSO      -0.064000
     21 C13         -2.2870    -0.5670    -0.9000 ca         1 ZSO      -0.180000
     22 C16         -5.8260     0.4500     0.9570 cc         1 ZSO      -0.165100
     23 N2          -6.5570    -0.4420     0.2800 na         1 ZSO       0.068800
     24 N1          -5.8920    -1.1790    -0.5930 nc         1 ZSO      -0.279400
     25 H1           3.4440    -3.3050    -1.8740 ha         1 ZSO       0.151000
     26 H2           2.8820    -0.9340    -2.2730 ha         1 ZSO       0.134000
     27 H3           3.1690    -0.1600     1.9270 ha         1 ZSO       0.134000
     28 H4           3.7200    -2.5230     2.3260 ha         1 ZSO       0.151000
     29 H5           2.5240     1.2030    -1.5480 hc         1 ZSO       0.053700
     30 H6           1.4190     1.3950     1.2800 hc         1 ZSO       0.061700
     31 H7           0.9000     3.1300    -1.1730 h1         1 ZSO       0.062200
     32 H8           0.1800     3.3520     0.4120 h1         1 ZSO       0.062200
     33 H9           2.2680     3.8940     1.2840 hn         1 ZSO       0.349800
     34 H11          3.3700     3.6110    -1.3970 h1         1 ZSO       0.053700
     35 H12          4.2310     4.1240     0.0440 h1         1 ZSO       0.053700
     36 H13          3.9710     1.8850     1.0470 hc         1 ZSO       0.048200
     37 H14          4.7060     1.7300    -0.5410 hc         1 ZSO       0.048200
     38 H15          0.0750     0.7800    -1.3910 h1         1 ZSO       0.037200
     39 H16          0.3730    -0.3920    -0.1000 h1         1 ZSO       0.037200
     40 H17         -3.1970     1.6990     1.4980 ha         1 ZSO       0.146000
     41 H18         -3.5420    -1.9540    -1.9220 ha         1 ZSO       0.144000
     42 H19         -1.4100    -0.8970    -1.4400 ha         1 ZSO       0.133000
     43 H20         -6.2620     1.1040     1.6930 h4         1 ZSO       0.178000
     44 H21         -7.5500    -0.5880     0.3870 hn         1 ZSO       0.319700
@<TRIPOS>BOND
     1     1     2 1   
     2     2     3 ar  
     3     2     7 ar  
     4     3     4 ar  
     5     3    25 1   
     6     4     5 ar  
     7     4    26 1   
     8     5     6 ar  
     9     5     8 1   
    10     6     7 ar  
    11     6    27 1   
    12     7    28 1   
    13     8     9 1   
    14     8    13 1   
    15     8    29 1   
    16     9    10 1   
    17     9    14 1   
    18     9    30 1   
    19    10    11 1   
    20    10    31 1   
    21    10    32 1   
    22    11    12 1   
    23    11    33 1   
    24    12    13 1   
    25    12    34 1   
    26    12    35 1   
    27    13    36 1   
    28    13    37 1   
    29    14    15 1   
    30    14    38 1   
    31    14    39 1   
    32    15    16 1   
    33    16    17 ar  
    34    16    21 ar  
    35    17    18 ar  
    36    17    40 1   
    37    18    19 ar  
    38    18    22 2   
    39    19    20 ar  
    40    19    24 2   
    41    20    21 ar  
    42    20    41 1   
    43    21    42 1   
    44    22    23 1   
    45    22    43 1   
    46    23    24 1   
    47    23    44 1   
@<TRIPOS>SUBSTRUCTURE
     1 ZSO         1 TEMP              0 ****  ****    0 ROOT
