@<TRIPOS>MOLECULE
ZSO
   44    47     1     0     0
SMALL
No Charge or Current Charge


@<TRIPOS>ATOM
      1 F            3.9690    -4.3740     0.4710 f          1 ZSO      -0.179000
      2 C            3.6760    -3.0740     0.2460 ca         1 ZSO       0.171000
      3 C5           3.5200    -2.6110    -1.0680 ca         1 ZSO      -0.149500
      4 C4           3.2150    -1.2580    -1.3030 ca         1 ZSO      -0.081500
      5 C3           3.0650    -0.3640    -0.2230 ca         1 ZSO      -0.097300
      6 C2           3.2250    -0.8420     1.0960 ca         1 ZSO      -0.081500
      7 C1           3.5300    -2.1940     1.3290 ca         1 ZSO      -0.149500
      8 C6           2.7210     1.1110    -0.4900 c6         1 ZSO      -0.012400
      9 C10          1.3590     1.5380     0.1420 c6         1 ZSO      -0.095700
     10 C9           1.0870     3.0440    -0.1310 c6         1 ZSO       0.153800
     11 N            2.2080     3.8960     0.3450 n7         1 ZSO      -0.845400
     12 C8           3.5030     3.5360    -0.2780 c6         1 ZSO       0.147800
     13 C7           3.8520     2.0560    -0.0010 c6         1 ZSO      -0.108400
     14 C11          0.1880     0.6500    -0.3710 c3         1 ZSO       0.173600
     15 O           -1.0300     1.0450     0.2840 os         1 ZSO      -0.358100
     16 C12         -2.2360     0.4270     0.0240 ca         1 ZSO       0.121100
     17 C18         -3.3750     0.8920     0.7120 ca         1 ZSO      -0.113000
     18 C17         -4.6010     0.2690     0.4520 ca         1 ZSO      -0.107000
     19 C15         -4.7410    -0.7650    -0.4370 ca         1 ZSO      -0.095000
     20 C14         -3.6210    -1.2440    -1.1340 ca         1 ZSO      -0.046000
     21 C13         -2.3630    -0.6440    -0.9020 ca         1 ZSO      -0.162000
     22 C16         -5.8950     0.5130     0.9810 cc         1 ZSO      -0.215100
     23 N2          -6.7390    -0.4070     0.3630 na         1 ZSO       0.018500
     24 N1          -6.0530    -1.2330    -0.5390 nc         1 ZSO      -0.279400
     25 H1           3.6340    -3.2990    -1.9020 ha         1 ZSO       0.133000
     26 H2           3.0940    -0.9090    -2.3260 ha         1 ZSO       0.116000
     27 H3           3.1130    -0.1680     1.9430 ha         1 ZSO       0.116000
     28 H4           3.6530    -2.5610     2.3450 ha         1 ZSO       0.133000
     29 H5           2.6340     1.2500    -1.5780 hc         1 ZSO       0.053700
     30 H6           1.4050     1.3860     1.2290 hc         1 ZSO       0.061700
     31 H7           0.9390     3.2010    -1.2110 h1         1 ZSO       0.062200
     32 H8           0.1590     3.3530     0.3730 h1         1 ZSO       0.062200
     33 H9           2.2960     3.7730     1.3610 hn         1 ZSO       0.405000
     34 H11          3.4500     3.7050    -1.3650 h1         1 ZSO       0.053700
     35 H12          4.2990     4.1840     0.1190 h1         1 ZSO       0.053700
     36 H13          4.0270     1.9180     1.0740 hc         1 ZSO       0.048200
     37 H14          4.7940     1.8010    -0.5050 hc         1 ZSO       0.048200
     38 H15          0.0990     0.7680    -1.4590 h1         1 ZSO       0.037200
     39 H16          0.4100    -0.4030    -0.1520 h1         1 ZSO       0.037200
     40 H17         -3.3000     1.7090     1.4240 ha         1 ZSO       0.128000
     41 H18         -3.7190    -2.0640    -1.8420 ha         1 ZSO       0.126000
     42 H19         -1.5020    -1.0220    -1.4460 ha         1 ZSO       0.115000
     43 H20         -6.2710     1.2260     1.7080 h4         1 ZSO       0.228000
     44 H21         -7.7400    -0.5120     0.5110 hn         1 ZSO       0.370000
@<TRIPOS>BOND
     1     1     2 1   
     2     2     3 ar  
     3     2     7 ar  
     4     3     4 ar  
     5     3    25 1   
     6     4     5 ar  
     7     4    26 1   
     8     5     6 ar  
     9     5     8 1   
    10     6     7 ar  
    11     6    27 1   
    12     7    28 1   
    13     8     9 1   
    14     8    13 1   
    15     8    29 1   
    16     9    10 1   
    17     9    14 1   
    18     9    30 1   
    19    10    11 1   
    20    10    31 1   
    21    10    32 1   
    22    11    12 1   
    23    11    33 1   
    24    12    13 1   
    25    12    34 1   
    26    12    35 1   
    27    13    36 1   
    28    13    37 1   
    29    14    15 1   
    30    14    38 1   
    31    14    39 1   
    32    15    16 1   
    33    16    17 ar  
    34    16    21 ar  
    35    17    18 ar  
    36    17    40 1   
    37    18    19 ar  
    38    18    22 2   
    39    19    20 ar  
    40    19    24 2   
    41    20    21 ar  
    42    20    41 1   
    43    21    42 1   
    44    22    23 1   
    45    22    43 1   
    46    23    24 1   
    47    23    44 1   
@<TRIPOS>SUBSTRUCTURE
     1 ZSO         1 TEMP              0 ****  ****    0 ROOT
