@<TRIPOS>MOLECULE
ZSP
   28    29     1     0     0
SMALL
abcg2


@<TRIPOS>ATOM
      1 O17         -1.4960     2.4970    -0.6930 o          1 ZSP      -0.530000
      2 C16         -1.7880     1.3390    -0.4200 c          1 ZSP       0.617200
      3 C08         -0.9070     0.2340    -0.2580 cc         1 ZSP      -0.208600
      4 N07          0.4570     0.4450    -0.2770 ne         1 ZSP      -0.471300
      5 C06          1.2460    -0.5610    -0.2400 cf         1 ZSP       0.409600
      6 C04          2.6920    -0.3890    -0.1580 cf         1 ZSP      -0.009500
      7 C02          3.3360     0.6240     0.4520 c2         1 ZSP       0.008900
      8 O03          4.6940     0.6170     0.3450 oh         1 ZSP      -0.567100
      9 C01          2.7320     1.7310     1.2440 c3         1 ZSP      -0.064900
     10 O05          3.3760    -1.4030    -0.7760 oh         1 ZSP      -0.553100
     11 C11          0.7240    -1.9830    -0.3450 c6         1 ZSP       0.159500
     12 N10         -0.5950    -2.0300     0.2450 nu         1 ZSP      -0.794200
     13 C09         -1.4490    -1.0090     0.0750 cd         1 ZSP       0.452600
     14 N12         -2.7540    -1.2450     0.2900 nd         1 ZSP      -0.772300
     15 C13         -3.5670    -0.2290     0.1260 cc         1 ZSP       0.769800
     16 N14         -4.8750    -0.3930     0.3330 nv         1 ZSP      -1.055200
     17 N15         -3.1350     1.0010    -0.2390 ns         1 ZSP      -0.453400
     18 H1           5.0820     1.2260     0.9820 ho         1 ZSP       0.465000
     19 H2           1.6930     1.5400     1.4860 hc         1 ZSP       0.055367
     20 H3           3.2870     1.8680     2.1770 hc         1 ZSP       0.055367
     21 H4           2.7740     2.6790     0.7010 hc         1 ZSP       0.055367
     22 H5           4.2860    -1.4250    -0.4580 ho         1 ZSP       0.470000
     23 H6           0.7050    -2.2940    -1.3990 h1         1 ZSP       0.059200
     24 H7          -5.2230    -1.3160     0.5280 hn         1 ZSP       0.509500
     25 H8          -5.5460     0.3240     0.1180 hn         1 ZSP       0.509500
     26 H9          -3.8050     1.7500    -0.3520 hn         1 ZSP       0.323500
     27 H10          1.3660    -2.6850     0.1840 h1         1 ZSP       0.059200
     28 H11         -0.9860    -2.9330     0.4630 hn         1 ZSP       0.501000
@<TRIPOS>BOND
     1     1     2 2   
     2     2     3 1   
     3     2    17 1   
     4     3     4 1   
     5     3    13 2   
     6     4     5 2   
     7     5     6 1   
     8     5    11 1   
     9     6     7 2   
    10     6    10 1   
    11     7     8 1   
    12     7     9 1   
    13     8    18 1   
    14     9    19 1   
    15     9    20 1   
    16     9    21 1   
    17    10    22 1   
    18    11    12 1   
    19    11    23 1   
    20    11    27 1   
    21    12    13 1   
    22    12    28 1   
    23    13    14 1   
    24    14    15 2   
    25    15    16 1   
    26    15    17 1   
    27    16    24 1   
    28    16    25 1   
    29    17    26 1   
@<TRIPOS>SUBSTRUCTURE
     1 ZSP         1 TEMP              0 ****  ****    0 ROOT
