@<TRIPOS>MOLECULE
ZSP
   28    29     1     0     0
SMALL
No Charge or Current Charge


@<TRIPOS>ATOM
      1 O17         -1.5080     2.5230     0.3930 o          1 ZSP      -0.530000
      2 C16         -1.8730     1.3630     0.2640 c          1 ZSP       0.617200
      3 C08         -0.9800     0.1940     0.1450 cc         1 ZSP      -0.208600
      4 N07          0.4170     0.3470     0.1680 ne         1 ZSP      -0.471300
      5 C06          1.2300    -0.6770     0.0090 cf         1 ZSP       0.409600
      6 C04          2.7080    -0.5350     0.0940 cf         1 ZSP      -0.009500
      7 C02          3.4260     0.5790     0.4240 c2         1 ZSP       0.008900
      8 O03          4.7780     0.4970     0.4390 oh         1 ZSP      -0.567100
      9 C01          2.8880     1.9520     0.7960 c3         1 ZSP      -0.064900
     10 O05          3.4620    -1.6210    -0.1880 oh         1 ZSP      -0.553100
     11 C11          0.6720    -2.1160    -0.2900 c6         1 ZSP       0.159500
     12 N10         -0.8110    -2.1850    -0.0980 nu         1 ZSP      -0.794200
     13 C09         -1.5470    -1.0630     0.0160 cd         1 ZSP       0.452600
     14 N12         -2.8970    -1.3010    -0.0270 nd         1 ZSP      -0.772300
     15 C13         -3.6090    -0.2180     0.0790 cc         1 ZSP       0.769800
     16 N14         -4.9130    -0.3850     0.0410 nv         1 ZSP      -1.055200
     17 N15         -3.1760     1.0370     0.2160 ns         1 ZSP      -0.453400
     18 H1           5.1380     1.3760     0.6920 ho         1 ZSP       0.465000
     19 H2           2.2130     1.8890     1.6580 hc         1 ZSP       0.055367
     20 H3           3.6830     2.6590     1.0610 hc         1 ZSP       0.055367
     21 H4           2.3280     2.3930    -0.0380 hc         1 ZSP       0.055367
     22 H5           4.3880    -1.2960    -0.0710 ho         1 ZSP       0.470000
     23 H6           0.9290    -2.3830    -1.3250 h1         1 ZSP       0.059200
     24 H7          -5.1650    -1.3240    -0.2390 hn         1 ZSP       0.509500
     25 H8          -5.4490     0.3460    -0.4090 hn         1 ZSP       0.509500
     26 H9          -3.8400     1.7850     0.3170 hn         1 ZSP       0.323500
     27 H10          1.1720    -2.8410     0.3690 h1         1 ZSP       0.059200
     28 H11         -1.3410    -3.0140    -0.3610 hn         1 ZSP       0.501000
@<TRIPOS>BOND
     1     1     2 2   
     2     2     3 1   
     3     2    17 1   
     4     3     4 1   
     5     3    13 2   
     6     4     5 2   
     7     5     6 1   
     8     5    11 1   
     9     6     7 2   
    10     6    10 1   
    11     7     8 1   
    12     7     9 1   
    13     8    18 1   
    14     9    19 1   
    15     9    20 1   
    16     9    21 1   
    17    10    22 1   
    18    11    12 1   
    19    11    23 1   
    20    11    27 1   
    21    12    13 1   
    22    12    28 1   
    23    13    14 1   
    24    14    15 2   
    25    15    16 1   
    26    15    17 1   
    27    16    24 1   
    28    16    25 1   
    29    17    26 1   
@<TRIPOS>SUBSTRUCTURE
     1 ZSP         1 TEMP              0 ****  ****    0 ROOT
