@<TRIPOS>MOLECULE
ZSS
   24    24     1     0     0
SMALL
abcg2


@<TRIPOS>ATOM
      1 N1          30.0280     4.9270    58.8790 n2         1 ZSS      -0.853100
      2 C7          26.0110     9.2490    56.8370 ca         1 ZSS      -0.104500
      3 C8          27.0260     8.3590    57.1540 ca         1 ZSS      -0.086500
      4 C1          28.9930     7.6200    58.5250 c3         1 ZSS       0.141600
      5 C5          26.7210    10.6730    58.6500 ca         1 ZSS      -0.104500
      6 C6          25.8680    10.4020    57.5910 ca         1 ZSS       0.125000
      7 C4          27.7330     9.7740    58.9490 ca         1 ZSS      -0.086500
      8 C3          27.9020     8.6080    58.2060 ca         1 ZSS      -0.076300
      9 C2          29.3860     5.2210    59.9340 c2         1 ZSS       0.663100
     10 N           29.2150     4.4650    61.0550 nv         1 ZSS      -1.062200
     11 C           30.3700     8.2450    58.6830 c3         1 ZSS      -0.081100
     12 S           28.4670     6.7420    60.0430 ss         1 ZSS      -0.332200
     13 H6          30.4980     4.0290    58.9690 hn         1 ZSS       0.381400
     14 H9          25.3420     9.0430    56.0120 ha         1 ZSS       0.130500
     15 H10         27.1360     7.4570    56.5640 ha         1 ZSS       0.122000
     16 H3          29.0310     6.8600    57.7440 h1         1 ZSS       0.102700
     17 H8          26.6030    11.5740    59.2360 ha         1 ZSS       0.130500
     18 H7          28.3950     9.9960    59.7770 ha         1 ZSS       0.122000
     19 H4          29.8250     3.6700    61.1650 hn         1 ZSS       0.466000
     20 H5          28.9900     4.9260    61.9220 hn         1 ZSS       0.466000
     21 H2          30.6480     8.7680    57.7660 hc         1 ZSS       0.046700
     22 H1          30.4070     8.9570    59.5070 hc         1 ZSS       0.046700
     23 H           31.1130     7.4720    58.8680 hc         1 ZSS       0.046700
     24 CL          24.6040    11.5230    57.2030 cl         1 ZSS      -0.204000
@<TRIPOS>BOND
     1     1     9 2   
     2     1    13 1   
     3     2     3 ar  
     4     2     6 ar  
     5     2    14 1   
     6     3     8 ar  
     7     3    15 1   
     8     4     8 1   
     9     4    11 1   
    10     4    12 1   
    11     4    16 1   
    12     5     6 ar  
    13     5     7 ar  
    14     5    17 1   
    15     6    24 1   
    16     7     8 ar  
    17     7    18 1   
    18     9    10 1   
    19     9    12 1   
    20    10    19 1   
    21    10    20 1   
    22    11    21 1   
    23    11    22 1   
    24    11    23 1   
@<TRIPOS>SUBSTRUCTURE
     1 ZSS         1 TEMP              0 ****  ****    0 ROOT
