@<TRIPOS>MOLECULE
ZSS
   24    24     1     0     0
SMALL
No Charge or Current Charge


@<TRIPOS>ATOM
      1 N1          30.0440     4.7510    58.9750 n2         1 ZSS      -0.853100
      2 C7          26.0760     9.4290    56.7220 ca         1 ZSS      -0.104500
      3 C8          27.0610     8.4680    57.0150 ca         1 ZSS      -0.086500
      4 C1          28.9120     7.5350    58.4930 c3         1 ZSS       0.141600
      5 C5          26.6390    10.6320    58.7590 ca         1 ZSS      -0.104500
      6 C6          25.8670    10.5090    57.5930 ca         1 ZSS       0.125000
      7 C4          27.6240     9.6730    59.0540 ca         1 ZSS      -0.086500
      8 C3          27.8440     8.5840    58.1820 ca         1 ZSS      -0.076300
      9 C2          29.4370     5.1770    59.9890 c2         1 ZSS       0.663100
     10 N           29.3800     4.4800    61.1320 nv         1 ZSS      -1.062200
     11 C           30.3260     8.1530    58.5630 c3         1 ZSS      -0.081100
     12 S           28.5040     6.6800    60.0840 ss         1 ZSS      -0.332200
     13 H6          30.4330     3.8300    59.2080 hn         1 ZSS       0.381400
     14 H9          25.4750     9.3350    55.8210 ha         1 ZSS       0.130500
     15 H10         27.2130     7.6350    56.3320 ha         1 ZSS       0.122000
     16 H3          28.9020     6.7840    57.6910 h1         1 ZSS       0.102700
     17 H8          26.4730    11.4680    59.4330 ha         1 ZSS       0.130500
     18 H7          28.2130     9.7750    59.9630 ha         1 ZSS       0.122000
     19 H4          30.2530     4.0290    61.3810 hn         1 ZSS       0.466000
     20 H5          28.9540     5.0000    61.8910 hn         1 ZSS       0.466000
     21 H2          30.5600     8.6750    57.6280 hc         1 ZSS       0.046700
     22 H1          30.4030     8.8720    59.3870 hc         1 ZSS       0.046700
     23 H           31.0860     7.3780    58.7160 hc         1 ZSS       0.046700
     24 Cl          24.6340    11.7090    57.2250 cl         1 ZSS      -0.204000
@<TRIPOS>BOND
     1     1     9 2   
     2     1    13 1   
     3     2     3 ar  
     4     2     6 ar  
     5     2    14 1   
     6     3     8 ar  
     7     3    15 1   
     8     4     8 1   
     9     4    11 1   
    10     4    12 1   
    11     4    16 1   
    12     5     6 ar  
    13     5     7 ar  
    14     5    17 1   
    15     6    24 1   
    16     7     8 ar  
    17     7    18 1   
    18     9    10 1   
    19     9    12 1   
    20    10    19 1   
    21    10    20 1   
    22    11    21 1   
    23    11    22 1   
    24    11    23 1   
@<TRIPOS>SUBSTRUCTURE
     1 ZSS         1 TEMP              0 ****  ****    0 ROOT
