@<TRIPOS>MOLECULE
ZST
   40    43     1     0     0
SMALL
abcg2


@<TRIPOS>ATOM
      1 C1          -1.5060    -0.6890    -1.8820 c          1 ZST       0.549600
      2 O1          -2.2730    -0.9370    -0.9630 o          1 ZST      -0.573000
      3 C2          -1.8500     0.0850    -3.0700 ca         1 ZST      -0.148600
      4 C3          -0.8790     0.3040    -4.0520 ca         1 ZST      -0.089900
      5 C4           0.4390    -0.2580    -3.8490 cc         1 ZST       0.476900
      6 C5          -3.1420     0.5960    -3.2190 ca         1 ZST      -0.068000
      7 C6          -3.4620     1.3220    -4.3460 ca         1 ZST      -0.129000
      8 C7          -2.4990     1.5430    -5.3340 ca         1 ZST      -0.102000
      9 C8          -1.2210     1.0460    -5.1900 ca         1 ZST      -0.063000
     10 N1          -0.2160    -1.1440    -1.8560 n          1 ZST      -0.158800
     11 N2           0.7230    -0.9510    -2.8050 nd         1 ZST      -0.485300
     12 C9           0.1950    -1.9650    -0.7370 c3         1 ZST       0.094700
     13 C10          0.2390    -1.1950     0.5430 cc         1 ZST       0.393200
     14 C11          0.5550     0.5100     2.2430 ca         1 ZST      -0.189000
     15 C12          0.2060    -0.7750     2.6910 ca         1 ZST       0.089400
     16 C13          0.7480     1.5590     3.1300 ca         1 ZST      -0.071000
     17 C14          0.5920     1.3100     4.4810 ca         1 ZST      -0.075000
     18 C15          0.2500     0.0320     4.9370 ca         1 ZST      -0.211300
     19 C16          0.0520    -1.0140     4.0520 ca         1 ZST      -0.007000
     20 N3           0.0350    -1.7100     1.6980 nd         1 ZST      -0.544100
     21 S1           0.6720     0.5000     0.5190 ss         1 ZST       0.147800
     22 C17          1.5180    -0.0710    -4.8610 c3         1 ZST      -0.271700
     23 C18          2.0620     1.3800    -4.9020 c          1 ZST       0.725000
     24 O2           1.7360     2.1220    -3.9600 o          1 ZST      -0.717500
     25 O3           2.7920     1.6540    -5.8720 o          1 ZST      -0.717500
     26 C19          0.0510    -0.2300     6.3970 c3         1 ZST       0.357300
     27 F1           0.4950     0.7660     7.1670 f          1 ZST      -0.119333
     28 F2          -1.2460    -0.4040     6.6940 f          1 ZST      -0.119333
     29 F3           0.6820    -1.3440     6.7930 f          1 ZST      -0.119333
     30 H5          -3.8810     0.4200    -2.4500 ha         1 ZST       0.126000
     31 H6          -4.4610     1.7200    -4.4680 ha         1 ZST       0.103000
     32 H7          -2.7570     2.1110    -6.2170 ha         1 ZST       0.107000
     33 H8          -0.4900     1.2220    -5.9660 ha         1 ZST       0.147000
     34 H91         -0.4690    -2.8210    -0.6110 h1         1 ZST       0.086700
     35 H92          1.1910    -2.3420    -0.9690 h1         1 ZST       0.086700
     36 H13          1.0150     2.5480     2.7830 ha         1 ZST       0.131000
     37 H14          0.7410     2.1230     5.1770 ha         1 ZST       0.123000
     38 H16         -0.2180    -2.0070     4.3870 ha         1 ZST       0.139000
     39 H171         1.1700    -0.3670    -5.8540 hc         1 ZST       0.048700
     40 H172         2.3460    -0.7410    -4.6150 hc         1 ZST       0.048700
@<TRIPOS>BOND
     1     1     2 2   
     2     1     3 1   
     3     1    10 1   
     4     3     4 ar  
     5     3     6 ar  
     6     4     5 1   
     7     4     9 ar  
     8     5    11 2   
     9     5    22 1   
    10     6     7 ar  
    11     6    30 1   
    12     7     8 ar  
    13     7    31 1   
    14     8     9 ar  
    15     8    32 1   
    16     9    33 1   
    17    10    11 1   
    18    10    12 1   
    19    12    13 1   
    20    12    34 1   
    21    12    35 1   
    22    13    20 2   
    23    13    21 1   
    24    14    15 ar  
    25    14    16 ar  
    26    14    21 1   
    27    15    19 ar  
    28    15    20 1   
    29    16    17 ar  
    30    16    36 1   
    31    17    18 ar  
    32    17    37 1   
    33    18    19 ar  
    34    18    26 1   
    35    19    38 1   
    36    22    23 1   
    37    22    39 1   
    38    22    40 1   
    39    23    24 1   
    40    23    25 1   
    41    26    27 1   
    42    26    28 1   
    43    26    29 1   
@<TRIPOS>SUBSTRUCTURE
     1 ZST         1 TEMP              0 ****  ****    0 ROOT
