@<TRIPOS>MOLECULE
ZST
   40    43     1     0     0
SMALL
No Charge or Current Charge


@<TRIPOS>ATOM
      1 C1          -1.5810    -0.8690    -1.9790 c          1 ZST       0.549600
      2 O1          -2.4010    -1.1930    -1.1260 o          1 ZST      -0.573000
      3 C2          -1.9450    -0.0470    -3.1730 ca         1 ZST      -0.148600
      4 C3          -0.9300     0.2880    -4.0970 ca         1 ZST      -0.089900
      5 C4           0.4650    -0.1790    -3.8660 cc         1 ZST       0.476900
      6 C5          -3.2740     0.3840    -3.3710 ca         1 ZST      -0.068000
      7 C6          -3.6070     1.1520    -4.4950 ca         1 ZST      -0.129000
      8 C7          -2.6140     1.4920    -5.4220 ca         1 ZST      -0.102000
      9 C8          -1.2890     1.0650    -5.2280 ca         1 ZST      -0.063000
     10 N1          -0.2150    -1.2410    -1.9100 n          1 ZST      -0.158800
     11 N2           0.8130    -0.9300    -2.8100 nd         1 ZST      -0.485300
     12 C9           0.2370    -2.0570    -0.7530 c3         1 ZST       0.094700
     13 C10          0.3530    -1.2610     0.5220 cc         1 ZST       0.393200
     14 C11          0.8020     0.3850     2.2160 ca         1 ZST      -0.189000
     15 C12          0.2090    -0.7760     2.6670 ca         1 ZST       0.089400
     16 C13          1.1160     1.4400     3.0840 ca         1 ZST      -0.071000
     17 C14          0.8170     1.3030     4.4530 ca         1 ZST      -0.075000
     18 C15          0.2160     0.1150     4.9420 ca         1 ZST      -0.211300
     19 C16         -0.0930    -0.9250     4.0320 ca         1 ZST      -0.007000
     20 N3          -0.0570    -1.7460     1.7080 nd         1 ZST      -0.544100
     21 S1           1.0920     0.3590     0.4840 ss         1 ZST       0.147800
     22 C17          1.5920     0.1260    -4.8140 c3         1 ZST      -0.271700
     23 C18          2.1440     1.5040    -4.5040 c          1 ZST       0.725000
     24 O2           2.9930     1.5980    -3.6320 o          1 ZST      -0.717500
     25 O3           1.6390     2.4640    -5.0620 o          1 ZST      -0.717500
     26 C19         -0.1210    -0.0360     6.4290 c3         1 ZST       0.357300
     27 F1           0.7070     0.6840     7.2210 f          1 ZST      -0.119333
     28 F2          -1.3800     0.3800     6.6910 f          1 ZST      -0.119333
     29 F3          -0.0330    -1.3190     6.8460 f          1 ZST      -0.119333
     30 H5          -4.0520     0.1230    -2.6550 ha         1 ZST       0.126000
     31 H6          -4.6320     1.4830    -4.6460 ha         1 ZST       0.103000
     32 H7          -2.8680     2.0880    -6.2960 ha         1 ZST       0.107000
     33 H8          -0.5540     1.3560    -5.9720 ha         1 ZST       0.147000
     34 H91         -0.4680    -2.8830    -0.5990 h1         1 ZST       0.086700
     35 H92          1.2150    -2.5030    -0.9730 h1         1 ZST       0.086700
     36 H13          1.5790     2.3510     2.7100 ha         1 ZST       0.131000
     37 H14          1.0520     2.1220     5.1290 ha         1 ZST       0.123000
     38 H16         -0.5660    -1.8420     4.3740 ha         1 ZST       0.139000
     39 H171         1.2000     0.0780    -5.8340 hc         1 ZST       0.048700
     40 H172         2.3750    -0.6240    -4.6450 hc         1 ZST       0.048700
@<TRIPOS>BOND
     1     1     2 2   
     2     1     3 1   
     3     1    10 1   
     4     3     4 ar  
     5     3     6 ar  
     6     4     5 1   
     7     4     9 ar  
     8     5    11 2   
     9     5    22 1   
    10     6     7 ar  
    11     6    30 1   
    12     7     8 ar  
    13     7    31 1   
    14     8     9 ar  
    15     8    32 1   
    16     9    33 1   
    17    10    11 1   
    18    10    12 1   
    19    12    13 1   
    20    12    34 1   
    21    12    35 1   
    22    13    20 2   
    23    13    21 1   
    24    14    15 ar  
    25    14    16 ar  
    26    14    21 1   
    27    15    19 ar  
    28    15    20 1   
    29    16    17 ar  
    30    16    36 1   
    31    17    18 ar  
    32    17    37 1   
    33    18    19 ar  
    34    18    26 1   
    35    19    38 1   
    36    22    23 1   
    37    22    39 1   
    38    22    40 1   
    39    23    24 1   
    40    23    25 1   
    41    26    27 1   
    42    26    28 1   
    43    26    29 1   
@<TRIPOS>SUBSTRUCTURE
     1 ZST         1 TEMP              0 ****  ****    0 ROOT
