@<TRIPOS>MOLECULE
ZSV
   75    78     1     0     0
SMALL
abcg2


@<TRIPOS>ATOM
      1 C1          -4.4750     1.7460    -3.5210 ca         1 ZSV      -0.101000
      2 C2          -5.2780     0.6390    -3.3050 ca         1 ZSV      -0.105000
      3 C3          -3.1990     1.7820    -2.9810 ca         1 ZSV      -0.096000
      4 C4          -4.7950    -0.4170    -2.5470 ca         1 ZSV      -0.114000
      5 C5          -0.7690    -3.8770     0.0400 ca         1 ZSV      -0.112000
      6 C6          -0.2480     3.4350     1.3350 ca         1 ZSV      -0.055000
      7 C7           1.1610     4.5690    -0.2220 ca         1 ZSV      -0.055000
      8 C8           0.5410    -4.0830    -0.3490 ca         1 ZSV      -0.125000
      9 C9          -0.2500     4.5480     2.1520 ca         1 ZSV      -0.180500
     10 C10          1.1770     5.6990     0.5920 ca         1 ZSV      -0.180500
     11 C11         -2.7040     0.7230    -2.2210 ca         1 ZSV      -0.101600
     12 C12         -0.1890    -1.7210     0.9580 ca         1 ZSV      -0.127600
     13 C13          0.4580     3.4280     0.1300 ca         1 ZSV      -0.145300
     14 C14         -3.5160    -0.3990    -1.9980 ca         1 ZSV      -0.073300
     15 C15         -1.1450    -2.7070     0.6900 ca         1 ZSV      -0.158300
     16 C16          1.4910    -3.0990    -0.1200 ca         1 ZSV       0.103100
     17 C17          1.1230    -1.9150     0.5280 ca         1 ZSV       0.096100
     18 C18          0.4640     5.6940     1.7870 ca         1 ZSV       0.137100
     19 C20         -4.7460    -0.8480     2.1670 c2         1 ZSV      -0.264200
     20 C21         -1.2730     0.7900    -1.7670 c          1 ZSV       0.606700
     21 C23          6.9050    -4.1410    -1.6480 c          1 ZSV       0.718000
     22 C24          3.1700    -1.0150    -0.1180 c6         1 ZSV       0.108600
     23 C25          3.7470    -2.4130    -0.0730 c6         1 ZSV       0.126300
     24 C28         -3.0820    -1.5880    -1.1860 c3         1 ZSV       0.149900
     25 C29         -2.5920    -2.5150     1.0410 c3         1 ZSV       0.177900
     26 C30         -4.5940    -1.0900     0.6990 c3         1 ZSV       0.148800
     27 C32          4.9810    -2.5680    -0.9360 c3         1 ZSV      -0.050400
     28 N33         -0.9000     1.9660    -1.2480 ns         1 ZSV      -0.480900
     29 N34         -3.1890    -1.3710     0.2850 nx         1 ZSV      -0.744000
     30 O35         -1.5460     0.1860     1.3810 o          1 ZSV      -0.662500
     31 O36          7.3750    -5.2980    -1.6560 o          1 ZSV      -0.741500
     32 O37         -0.5030    -0.1490    -1.9170 o          1 ZSV      -0.587100
     33 O38          0.1940    -0.1870     2.7050 o          1 ZSV      -0.662500
     34 O39          7.3950    -3.1410    -2.2080 o          1 ZSV      -0.741500
     35 O40          2.0250    -0.9250     0.7130 os         1 ZSV      -0.309100
     36 O41          2.7550    -3.3280    -0.5360 os         1 ZSV      -0.319100
     37 O42          0.4020     6.7310     2.6430 os         1 ZSV      -0.345100
     38 H1          -4.8320     2.5760    -4.1160 ha         1 ZSV       0.117000
     39 H2          -6.2740     0.5900    -3.7250 ha         1 ZSV       0.115000
     40 H3          -2.5690     2.6390    -3.1820 ha         1 ZSV       0.125000
     41 H4          -5.4270    -1.2810    -2.3800 ha         1 ZSV       0.108000
     42 H5          -1.5100    -4.6410    -0.1610 ha         1 ZSV       0.094000
     43 H8           0.8360    -4.9980    -0.8470 ha         1 ZSV       0.130000
     44 H9          -0.8030     4.5420     3.0830 ha         1 ZSV       0.118000
     45 H7           1.7180     4.5910    -1.1510 ha         1 ZSV       0.135000
     46 H10          1.7440     6.5630     0.2730 ha         1 ZSV       0.118000
     47 H281        -3.7060    -2.4500    -1.4320 hx         1 ZSV       0.096700
     48 H282        -2.0510    -1.8520    -1.3990 hx         1 ZSV       0.096700
     49 H291        -3.1690    -3.4140     0.8190 hx         1 ZSV       0.067200
     50 H292        -2.7170    -2.2940     2.1010 hx         1 ZSV       0.067200
     51 H20         -4.7660    -1.7140     2.8190 ha         1 ZSV       0.180000
     52 H301        -5.2040    -1.9380     0.3770 hx         1 ZSV       0.062700
     53 H302        -4.9180    -0.2120     0.1430 hx         1 ZSV       0.062700
     54 H33         -1.5970     2.6760    -1.0870 hn         1 ZSV       0.313500
     55 H241         3.8920    -0.2920     0.2590 h1         1 ZSV       0.067700
     56 H242         2.9120    -0.7430    -1.1490 h1         1 ZSV       0.067700
     57 H25          3.9920    -2.6590     0.9700 h1         1 ZSV       0.058700
     58 H321         4.7330    -2.3160    -1.9720 hc         1 ZSV       0.054200
     59 H322         5.7100    -1.8250    -0.6060 hc         1 ZSV       0.054200
     60 H261         2.1830     7.7450     2.2600 h1         1 ZSV       0.036033
     61 H262         0.7630     8.3530     1.3820 h1         1 ZSV       0.036033
     62 H263         0.9090     8.6190     3.1280 h1         1 ZSV       0.036033
     63 H34         -2.5360    -0.5500     0.6200 hn         1 ZSV       0.590000
     64 C19         -4.8930     0.3670     2.6800 c2         1 ZSV      -0.240000
     65 C27          0.4420     2.2170    -0.7600 c3         1 ZSV       0.154300
     66 C31          5.5990    -3.9560    -0.8540 c3         1 ZSV      -0.207400
     67 H6          -0.8040     2.5540     1.6340 ha         1 ZSV       0.135000
     68 C26          1.1050     7.9150     2.3240 c3         1 ZSV       0.151900
     69 H271         1.1290     2.3650    -1.5980 h1         1 ZSV       0.071700
     70 H272         0.7910     1.3350    -0.2200 h1         1 ZSV       0.071700
     71 H191        -4.8900     1.2530     2.0580 ha         1 ZSV       0.171500
     72 H192        -5.0210     0.5170     3.7440 ha         1 ZSV       0.171500
     73 H311         4.8840    -4.7120    -1.1880 hc         1 ZSV       0.025700
     74 H312         5.8050    -4.1990     0.1950 hc         1 ZSV       0.025700
     75 C22         -0.5240    -0.4690     1.7500 c          1 ZSV       0.726600
@<TRIPOS>BOND
     1     1     2 ar  
     2     1     3 ar  
     3     1    38 1   
     4     2     4 ar  
     5     2    39 1   
     6     3    11 ar  
     7     3    40 1   
     8     4    14 ar  
     9     4    41 1   
    10     5     8 ar  
    11     5    15 ar  
    12     5    42 1   
    13     6     9 ar  
    14     6    13 ar  
    15     6    67 1   
    16     7    10 ar  
    17     7    13 ar  
    18     7    45 1   
    19     8    16 ar  
    20     8    43 1   
    21     9    18 ar  
    22     9    44 1   
    23    10    18 ar  
    24    10    46 1   
    25    11    14 ar  
    26    11    20 1   
    27    12    15 ar  
    28    12    17 ar  
    29    12    75 1   
    30    13    65 1   
    31    14    24 1   
    32    15    25 1   
    33    16    17 ar  
    34    16    36 1   
    35    17    35 1   
    36    18    37 1   
    37    19    26 1   
    38    19    51 1   
    39    19    64 2   
    40    20    28 1   
    41    20    32 2   
    42    21    31 1   
    43    21    34 1   
    44    21    66 1   
    45    22    23 1   
    46    22    35 1   
    47    22    55 1   
    48    22    56 1   
    49    23    27 1   
    50    23    36 1   
    51    23    57 1   
    52    24    29 1   
    53    24    47 1   
    54    24    48 1   
    55    25    29 1   
    56    25    49 1   
    57    25    50 1   
    58    26    29 1   
    59    26    52 1   
    60    26    53 1   
    61    27    58 1   
    62    27    59 1   
    63    27    66 1   
    64    28    54 1   
    65    28    65 1   
    66    29    63 1   
    67    30    75 1   
    68    33    75 1   
    69    37    68 1   
    70    60    68 1   
    71    61    68 1   
    72    62    68 1   
    73    64    71 1   
    74    64    72 1   
    75    65    69 1   
    76    65    70 1   
    77    66    73 1   
    78    66    74 1   
@<TRIPOS>SUBSTRUCTURE
     1 ZSV         1 TEMP              0 ****  ****    0 ROOT
