@<TRIPOS>MOLECULE
ZSV
   75    78     1     0     0
SMALL
No Charge or Current Charge


@<TRIPOS>ATOM
      1 C1          -5.1880     2.2630    -2.5340 ca         1 ZSV      -0.101000
      2 C2          -6.0970     1.2200    -2.3200 ca         1 ZSV      -0.105000
      3 C3          -3.8080     2.0230    -2.4390 ca         1 ZSV      -0.096000
      4 C4          -5.6260    -0.0600    -1.9980 ca         1 ZSV      -0.114000
      5 C5          -0.6300    -3.5390    -0.5670 ca         1 ZSV      -0.112000
      6 C6           0.5350     2.7320     0.6240 ca         1 ZSV      -0.055000
      7 C7           1.8210     3.6460    -1.2270 ca         1 ZSV      -0.055000
      8 C8           0.7470    -3.3510    -0.7620 ca         1 ZSV      -0.125000
      9 C9           1.0320     3.7420     1.4650 ca         1 ZSV      -0.180500
     10 C10          2.3170     4.6570    -0.3840 ca         1 ZSV      -0.180500
     11 C11         -3.3120     0.7330    -2.1240 ca         1 ZSV      -0.101600
     12 C12         -0.6930    -1.6160     0.9450 ca         1 ZSV      -0.127600
     13 C13          0.9280     2.6780    -0.7270 ca         1 ZSV      -0.145300
     14 C14         -4.2440    -0.3150    -1.8880 ca         1 ZSV      -0.073300
     15 C15         -1.3560    -2.6880     0.2880 ca         1 ZSV      -0.158300
     16 C16          1.4140    -2.3150    -0.0940 ca         1 ZSV       0.103100
     17 C17          0.6920    -1.4320     0.7490 ca         1 ZSV       0.096100
     18 C18          1.9220     4.7070     0.9700 ca         1 ZSV       0.137100
     19 C20         -5.1260    -1.9460     2.1920 c2         1 ZSV      -0.264200
     20 C21         -1.8130     0.5040    -2.0820 c          1 ZSV       0.606700
     21 C23          7.1960    -1.9440    -0.5400 c          1 ZSV       0.718000
     22 C24          2.6850    -0.0650     0.9550 c6         1 ZSV       0.108600
     23 C25          3.4870    -1.3590     0.6930 c6         1 ZSV       0.126300
     24 C28         -3.8170    -1.7090    -1.4420 c3         1 ZSV       0.149900
     25 C29         -2.8330    -2.9720     0.5170 c3         1 ZSV       0.177900
     26 C30         -5.1450    -1.9830     0.6870 c3         1 ZSV       0.148800
     27 C32          4.9120    -1.0830     0.1350 c3         1 ZSV      -0.050400
     28 N33         -1.0510     1.5860    -1.7070 ns         1 ZSV      -0.480900
     29 N34         -3.7680    -1.8670     0.0710 nx         1 ZSV      -0.744000
     30 O35         -2.2720     0.0620     1.2830 o          1 ZSV      -0.662500
     31 O36          7.3860    -1.8440    -1.7420 o          1 ZSV      -0.741500
     32 O37         -1.2870    -0.5410    -2.4360 o          1 ZSV      -0.587100
     33 O38         -1.2530    -0.7030     3.0310 o          1 ZSV      -0.662500
     34 O39          8.0430    -1.6890     0.3030 o          1 ZSV      -0.741500
     35 O40          1.3460    -0.3910     1.3860 os         1 ZSV      -0.309100
     36 O41          2.7770    -2.1740    -0.2640 os         1 ZSV      -0.319100
     37 O42          2.3760     5.6740     1.8430 os         1 ZSV      -0.345100
     38 H1          -5.5510     3.2580    -2.7850 ha         1 ZSV       0.117000
     39 H2          -7.1660     1.4050    -2.3970 ha         1 ZSV       0.115000
     40 H3          -3.1270     2.8460    -2.6440 ha         1 ZSV       0.125000
     41 H4          -6.3420    -0.8590    -1.8200 ha         1 ZSV       0.108000
     42 H5          -1.1340    -4.3600    -1.0730 ha         1 ZSV       0.094000
     43 H8           1.3030    -4.0200    -1.4130 ha         1 ZSV       0.130000
     44 H9           0.7250     3.7760     2.5070 ha         1 ZSV       0.118000
     45 H7           2.1360     3.6150    -2.2690 ha         1 ZSV       0.135000
     46 H10          3.0050     5.3880    -0.7990 ha         1 ZSV       0.118000
     47 H281        -4.5060    -2.4580    -1.8400 hx         1 ZSV       0.096700
     48 H282        -2.8300    -1.9510    -1.8380 hx         1 ZSV       0.096700
     49 H291        -3.1290    -3.8900     0.0030 hx         1 ZSV       0.067200
     50 H292        -2.9960    -3.1310     1.5860 hx         1 ZSV       0.067200
     51 H20         -5.2750    -2.9190     2.6650 ha         1 ZSV       0.180000
     52 H301        -5.5950    -2.9170     0.3400 hx         1 ZSV       0.062700
     53 H302        -5.7540    -1.1560     0.3150 hx         1 ZSV       0.062700
     54 H33         -1.5430     2.4190    -1.4120 hn         1 ZSV       0.313500
     55 H241         3.1720     0.5480     1.7270 h1         1 ZSV       0.067700
     56 H242         2.6320     0.5270     0.0320 h1         1 ZSV       0.067700
     57 H25          3.5730    -1.9190     1.6360 h1         1 ZSV       0.058700
     58 H321         4.8350    -0.5530    -0.8230 hc         1 ZSV       0.054200
     59 H322         5.4330    -0.4000     0.8170 hc         1 ZSV       0.054200
     60 H261         4.2340     6.2720     1.0770 h1         1 ZSV       0.036033
     61 H262         2.8580     7.3180     0.6350 h1         1 ZSV       0.036033
     62 H263         3.5220     7.3650     2.2810 h1         1 ZSV       0.036033
     63 H34         -3.3460    -0.9810     0.4570 hn         1 ZSV       0.590000
     64 C19         -4.9530    -0.8430     2.9360 c2         1 ZSV      -0.240000
     65 C27          0.4050     1.5730    -1.6320 c3         1 ZSV       0.154300
     66 C31          5.7930    -2.3460    -0.0580 c3         1 ZSV      -0.207400
     67 H6          -0.1520     1.9880     1.0240 ha         1 ZSV       0.135000
     68 C26          3.2920     6.7060     1.4350 c3         1 ZSV       0.151900
     69 H271         0.8100     1.6860    -2.6470 h1         1 ZSV       0.071700
     70 H272         0.7360     0.6000    -1.2470 h1         1 ZSV       0.071700
     71 H191        -4.8040     0.1390     2.4840 ha         1 ZSV       0.171500
     72 H192        -4.9480    -0.8820     4.0260 ha         1 ZSV       0.171500
     73 H311         5.2900    -2.9570    -0.8170 hc         1 ZSV       0.025700
     74 H312         5.8500    -2.8250     0.9280 hc         1 ZSV       0.025700
     75 C22         -1.4410    -0.6550     1.8250 c          1 ZSV       0.726600
@<TRIPOS>BOND
     1     1     2 ar  
     2     1     3 ar  
     3     1    38 1   
     4     2     4 ar  
     5     2    39 1   
     6     3    11 ar  
     7     3    40 1   
     8     4    14 ar  
     9     4    41 1   
    10     5     8 ar  
    11     5    15 ar  
    12     5    42 1   
    13     6     9 ar  
    14     6    13 ar  
    15     6    67 1   
    16     7    10 ar  
    17     7    13 ar  
    18     7    45 1   
    19     8    16 ar  
    20     8    43 1   
    21     9    18 ar  
    22     9    44 1   
    23    10    18 ar  
    24    10    46 1   
    25    11    14 ar  
    26    11    20 1   
    27    12    15 ar  
    28    12    17 ar  
    29    12    75 1   
    30    13    65 1   
    31    14    24 1   
    32    15    25 1   
    33    16    17 ar  
    34    16    36 1   
    35    17    35 1   
    36    18    37 1   
    37    19    26 1   
    38    19    51 1   
    39    19    64 2   
    40    20    28 1   
    41    20    32 2   
    42    21    31 1   
    43    21    34 1   
    44    21    66 1   
    45    22    23 1   
    46    22    35 1   
    47    22    55 1   
    48    22    56 1   
    49    23    27 1   
    50    23    36 1   
    51    23    57 1   
    52    24    29 1   
    53    24    47 1   
    54    24    48 1   
    55    25    29 1   
    56    25    49 1   
    57    25    50 1   
    58    26    29 1   
    59    26    52 1   
    60    26    53 1   
    61    27    58 1   
    62    27    59 1   
    63    27    66 1   
    64    28    54 1   
    65    28    65 1   
    66    29    63 1   
    67    30    75 1   
    68    33    75 1   
    69    37    68 1   
    70    60    68 1   
    71    61    68 1   
    72    62    68 1   
    73    64    71 1   
    74    64    72 1   
    75    65    69 1   
    76    65    70 1   
    77    66    73 1   
    78    66    74 1   
@<TRIPOS>SUBSTRUCTURE
     1 ZSV         1 TEMP              0 ****  ****    0 ROOT
