@<TRIPOS>MOLECULE
ZSW
   70    72     1     0     0
SMALL
bcc


@<TRIPOS>ATOM
      1 C1          -4.9750     3.2030    -1.0120 ca         1 ZSW      -0.120000
      2 C2          -5.4420     2.2460    -1.8980 ca         1 ZSW      -0.123000
      3 C3          -3.7710     2.9990    -0.3550 ca         1 ZSW      -0.115000
      4 C4          -4.6970     1.0970    -2.1160 ca         1 ZSW      -0.132000
      5 C5           0.1800    -2.2580    -2.1510 ca         1 ZSW      -0.129000
      6 C6           1.4930    -1.8300    -2.2130 ca         1 ZSW      -0.143000
      7 C7          -3.0160     1.8460    -0.5680 ca         1 ZSW      -0.103600
      8 C8           0.0640    -1.6530     0.1830 ca         1 ZSW      -0.124600
      9 C9          -3.4860     0.8760    -1.4670 ca         1 ZSW      -0.073300
     10 C10         -0.5430    -2.1720    -0.9670 ca         1 ZSW      -0.156300
     11 C11          2.0940    -1.2800    -1.0910 ca         1 ZSW       0.103100
     12 C12          1.3760    -1.1900     0.1060 ca         1 ZSW       0.096100
     13 C14         -4.5710    -2.7240     0.6220 c2         1 ZSW      -0.192200
     14 C15         -1.6700     1.7460     0.0990 c          1 ZSW       0.678700
     15 C17          7.5780     0.3660    -1.4220 c          1 ZSW       0.928600
     16 C18          0.1660     3.4980     2.3350 c3         1 ZSW      -0.089400
     17 C20         -0.4720     2.1110     2.2330 c3         1 ZSW       0.111700
     18 C22         -0.8550     1.5810     3.6070 c3         1 ZSW      -0.109100
     19 C23          3.0510     0.2070     0.9160 c6         1 ZSW       0.084400
     20 C25          4.0300    -0.5180     0.0190 c6         1 ZSW       0.103100
     21 C26         -2.7410    -0.3950    -1.7700 c3         1 ZSW       0.179100
     22 C27         -1.9830    -2.5980    -0.9740 c3         1 ZSW       0.207100
     23 C28         -4.3150    -1.8870    -0.5900 c3         1 ZSW       0.173000
     24 C31          5.2520     0.3180    -0.3030 c3         1 ZSW      -0.050400
     25 N32         -1.6520     2.1260     1.3830 ns         1 ZSW      -0.543900
     26 N33         -2.8990    -1.4420    -0.7200 nx         1 ZSW      -0.776400
     27 O37         -1.8270    -1.1190     1.5240 o          1 ZSW      -0.763300
     28 O35          7.7890     1.3900    -0.7430 o          1 ZSW      -0.846800
     29 O36         -0.6800     1.3900    -0.5240 o          1 ZSW      -0.590100
     30 O34         -0.0770    -2.0670     2.5000 o          1 ZSW      -0.763300
     31 O38          8.3330    -0.1130    -2.2930 o          1 ZSW      -0.846800
     32 O39          1.9310    -0.6140     1.1960 os         1 ZSW      -0.285900
     33 O40          3.3680    -0.8470    -1.2010 os         1 ZSW      -0.295900
     34 H1          -5.5370     4.1110    -0.8380 ha         1 ZSW       0.134000
     35 H2          -6.3780     2.3910    -2.4210 ha         1 ZSW       0.133000
     36 H3          -3.4010     3.7680     0.3110 ha         1 ZSW       0.143000
     37 H4          -5.0650     0.3500    -2.8100 ha         1 ZSW       0.126000
     38 H5          -0.2880    -2.6640    -3.0390 ha         1 ZSW       0.112000
     39 H6           2.0560    -1.9000    -3.1350 ha         1 ZSW       0.147000
     40 H261        -3.1000    -0.8230    -2.7080 hx         1 ZSW       0.095700
     41 H262        -1.6790    -0.2000    -1.8750 hx         1 ZSW       0.095700
     42 H271        -2.2530    -3.0400    -1.9340 hx         1 ZSW       0.064700
     43 H272        -2.1840    -3.3390    -0.2020 hx         1 ZSW       0.064700
     44 H131        -5.5870    -2.9680     2.4470 ha         1 ZSW       0.118000
     45 H132        -5.8690    -1.3650     1.5790 ha         1 ZSW       0.118000
     46 H14         -4.1140    -3.7060     0.6710 ha         1 ZSW       0.136000
     47 H281        -4.5710    -2.4280    -1.5050 hx         1 ZSW       0.061700
     48 H282        -4.9370    -0.9950    -0.5500 hx         1 ZSW       0.061700
     49 H32         -2.5330     2.3180     1.8350 hn         1 ZSW       0.304500
     50 H291         5.8370    -0.6900    -2.1240 hc         1 ZSW       0.025700
     51 H292         6.5390    -1.3600    -0.6800 hc         1 ZSW       0.025700
     52 H181         1.0140     3.4240     3.0210 hc         1 ZSW       0.035200
     53 H182        -0.5470     4.1830     2.8060 hc         1 ZSW       0.035200
     54 H20          0.2420     1.4250     1.7740 h1         1 ZSW       0.100700
     55 H191         1.3370     3.3930     0.5130 hc         1 ZSW       0.035367
     56 H192        -0.1890     4.2540     0.3250 hc         1 ZSW       0.035367
     57 H193         1.1520     5.0230     1.1610 hc         1 ZSW       0.035367
     58 H221        -1.2690     0.5770     3.5350 hc         1 ZSW       0.047367
     59 H222         0.0190     1.5470     4.2570 hc         1 ZSW       0.047367
     60 H223        -1.5940     2.2300     4.0850 hc         1 ZSW       0.047367
     61 H231         3.5140     0.4480     1.8730 h1         1 ZSW       0.066200
     62 H232         2.7270     1.1440     0.4450 h1         1 ZSW       0.066200
     63 H25          4.3400    -1.4480     0.5160 h1         1 ZSW       0.058700
     64 H311         4.9380     1.2480    -0.7860 hc         1 ZSW       0.053700
     65 H312         5.7110     0.6060     0.6450 hc         1 ZSW       0.053700
     66 H33         -2.5220    -1.1060     0.2650 hn         1 ZSW       0.536800
     67 C13         -5.3810    -2.3320     1.5970 c2         1 ZSW      -0.160000
     68 C29          6.2740    -0.4110    -1.1620 c3         1 ZSW      -0.206400
     69 C19          0.6410     4.0720     1.0090 c3         1 ZSW      -0.086100
     70 C16         -0.6560    -1.6070     1.5190 c          1 ZSW       0.937200
@<TRIPOS>BOND
     1     1     2 ar  
     2     1     3 ar  
     3     1    34 1   
     4     2     4 ar  
     5     2    35 1   
     6     3     7 ar  
     7     3    36 1   
     8     4     9 ar  
     9     4    37 1   
    10     5     6 ar  
    11     5    10 ar  
    12     5    38 1   
    13     6    11 ar  
    14     6    39 1   
    15     7     9 ar  
    16     7    14 1   
    17     8    10 ar  
    18     8    12 ar  
    19     8    70 1   
    20     9    21 1   
    21    10    22 1   
    22    11    12 ar  
    23    11    33 1   
    24    12    32 1   
    25    13    23 1   
    26    13    46 1   
    27    13    67 2   
    28    14    25 1   
    29    14    29 2   
    30    15    28 1   
    31    15    31 1   
    32    15    68 1   
    33    16    17 1   
    34    16    52 1   
    35    16    53 1   
    36    16    69 1   
    37    17    18 1   
    38    17    25 1   
    39    17    54 1   
    40    18    58 1   
    41    18    59 1   
    42    18    60 1   
    43    19    20 1   
    44    19    32 1   
    45    19    61 1   
    46    19    62 1   
    47    20    24 1   
    48    20    33 1   
    49    20    63 1   
    50    21    26 1   
    51    21    40 1   
    52    21    41 1   
    53    22    26 1   
    54    22    42 1   
    55    22    43 1   
    56    23    26 1   
    57    23    47 1   
    58    23    48 1   
    59    24    64 1   
    60    24    65 1   
    61    24    68 1   
    62    25    49 1   
    63    26    66 1   
    64    27    70 1   
    65    30    70 1   
    66    44    67 1   
    67    45    67 1   
    68    50    68 1   
    69    51    68 1   
    70    55    69 1   
    71    56    69 1   
    72    57    69 1   
@<TRIPOS>SUBSTRUCTURE
     1 ZSW         1 TEMP              0 ****  ****    0 ROOT
