@<TRIPOS>MOLECULE
ZSW
   70    72     1     0     0
SMALL
No Charge or Current Charge


@<TRIPOS>ATOM
      1 C1          -5.3970     3.0110    -0.3110 ca         1 ZSW      -0.102000
      2 C2          -6.0100     2.0500    -1.1250 ca         1 ZSW      -0.105000
      3 C3          -4.0260     2.9190    -0.0240 ca         1 ZSW      -0.097000
      4 C4          -5.2510     0.9930    -1.6450 ca         1 ZSW      -0.114000
      5 C5           0.1830    -1.9180    -2.2110 ca         1 ZSW      -0.111000
      6 C6           1.5060    -1.4640    -2.0970 ca         1 ZSW      -0.125000
      7 C7          -3.2410     1.8610    -0.5470 ca         1 ZSW      -0.103600
      8 C8          -0.1430    -1.6190     0.1970 ca         1 ZSW      -0.124600
      9 C9          -3.8760     0.8820    -1.3620 ca         1 ZSW      -0.073300
     10 C10         -0.6440    -2.0070    -1.0760 ca         1 ZSW      -0.156300
     11 C11          2.0150    -1.0980    -0.8440 ca         1 ZSW       0.103100
     12 C12          1.1850    -1.1550     0.3050 ca         1 ZSW       0.096100
     13 C14         -4.5660    -3.1920     0.3040 c2         1 ZSW      -0.242200
     14 C15         -1.7550     1.8170    -0.2440 c          1 ZSW       0.611700
     15 C17          7.6360     0.3100    -0.3930 c          1 ZSW       0.718000
     16 C18          0.6070     3.8350     1.2900 c3         1 ZSW      -0.089400
     17 C20         -0.0030     2.4240     1.4650 c3         1 ZSW       0.111700
     18 C22          0.0380     1.9530     2.9310 c3         1 ZSW      -0.109100
     19 C23          2.9240    -0.0250     1.5600 c6         1 ZSW       0.107600
     20 C25          3.9250    -0.6550     0.5650 c6         1 ZSW       0.126300
     21 C26         -3.1440    -0.3430    -1.8990 c3         1 ZSW       0.150900
     22 C27         -2.0600    -2.5340    -1.2500 c3         1 ZSW       0.178900
     23 C28         -4.5070    -2.1520    -0.7850 c3         1 ZSW       0.144800
     24 C31          5.2630     0.1320     0.4740 c3         1 ZSW      -0.050400
     25 N32         -1.3770     2.3650     0.9650 ns         1 ZSW      -0.476900
     26 N33         -3.1400    -1.5210    -0.9340 nx         1 ZSW      -0.747000
     27 O37         -1.9860    -0.9330     1.4560 o          1 ZSW      -0.658000
     28 O35          8.4550     0.0400     0.4730 o          1 ZSW      -0.741500
     29 O36         -0.9270     1.3970    -1.0390 o          1 ZSW      -0.590100
     30 O34         -0.7490    -2.5010     2.2840 o          1 ZSW      -0.658000
     31 O38          7.7660     1.2300    -1.1850 o          1 ZSW      -0.741500
     32 O39          1.6790    -0.7560     1.5360 os         1 ZSW      -0.309100
     33 O40          3.3300    -0.6880    -0.7490 os         1 ZSW      -0.319100
     34 H1          -5.9830     3.8350     0.0930 ha         1 ZSW       0.116000
     35 H2          -7.0720     2.1220    -1.3480 ha         1 ZSW       0.115000
     36 H3          -3.5750     3.6980     0.5860 ha         1 ZSW       0.125000
     37 H4          -5.7400     0.2430    -2.2640 ha         1 ZSW       0.108000
     38 H5          -0.1990    -2.2100    -3.1870 ha         1 ZSW       0.094000
     39 H6           2.1430    -1.4090    -2.9770 ha         1 ZSW       0.129000
     40 H261        -3.6050    -0.6730    -2.8330 hx         1 ZSW       0.095700
     41 H262        -2.1080    -0.0920    -2.1340 hx         1 ZSW       0.095700
     42 H271        -2.2130    -2.8810    -2.2740 hx         1 ZSW       0.064700
     43 H272        -2.2020    -3.3900    -0.5870 hx         1 ZSW       0.064700
     44 H131        -4.6230    -3.7310     2.3610 ha         1 ZSW       0.168000
     45 H132        -4.5440    -1.9110     2.0060 ha         1 ZSW       0.168000
     46 H14         -4.6040    -4.2200    -0.0610 ha         1 ZSW       0.186000
     47 H281        -4.7820    -2.5990    -1.7440 hx         1 ZSW       0.061700
     48 H282        -5.2250    -1.3580    -0.5640 hx         1 ZSW       0.061700
     49 H32         -2.1230     2.6810     1.5710 hn         1 ZSW       0.304500
     50 H291         5.9200    -0.5040    -1.4560 hc         1 ZSW       0.025700
     51 H292         6.5070    -1.5190    -0.0420 hc         1 ZSW       0.025700
     52 H181         1.6210     3.8370     1.7090 hc         1 ZSW       0.035200
     53 H182         0.0250     4.5600     1.8720 hc         1 ZSW       0.035200
     54 H20          0.6060     1.7210     0.8810 h1         1 ZSW       0.100700
     55 H191         1.2560     3.6050    -0.7860 hc         1 ZSW       0.035367
     56 H192        -0.3130     4.4260    -0.6090 hc         1 ZSW       0.035367
     57 H193         1.1880     5.2900    -0.2290 hc         1 ZSW       0.035367
     58 H221        -0.3620     0.9360     3.0210 hc         1 ZSW       0.047367
     59 H222         1.0680     1.9450     3.3060 hc         1 ZSW       0.047367
     60 H223        -0.5570     2.6150     3.5720 hc         1 ZSW       0.047367
     61 H231         3.3290    -0.0360     2.5810 h1         1 ZSW       0.066200
     62 H232         2.7330     1.0190     1.2760 h1         1 ZSW       0.066200
     63 H25          4.1360    -1.6870     0.8810 h1         1 ZSW       0.058700
     64 H311         5.0650     1.1540     0.1270 hc         1 ZSW       0.053700
     65 H312         5.6850     0.2320     1.4820 hc         1 ZSW       0.053700
     66 H33         -2.8810    -1.1410     0.0140 hn         1 ZSW       0.592000
     67 C13         -4.5790    -2.9320     1.6210 c2         1 ZSW      -0.260000
     68 C29          6.3370    -0.5120    -0.4410 c3         1 ZSW      -0.206400
     69 C19          0.6880     4.3160    -0.1750 c3         1 ZSW      -0.086100
     70 C16         -1.0070    -1.6680     1.4280 c          1 ZSW       0.726600
@<TRIPOS>BOND
     1     1     2 ar  
     2     1     3 ar  
     3     1    34 1   
     4     2     4 ar  
     5     2    35 1   
     6     3     7 ar  
     7     3    36 1   
     8     4     9 ar  
     9     4    37 1   
    10     5     6 ar  
    11     5    10 ar  
    12     5    38 1   
    13     6    11 ar  
    14     6    39 1   
    15     7     9 ar  
    16     7    14 1   
    17     8    10 ar  
    18     8    12 ar  
    19     8    70 1   
    20     9    21 1   
    21    10    22 1   
    22    11    12 ar  
    23    11    33 1   
    24    12    32 1   
    25    13    23 1   
    26    13    46 1   
    27    13    67 2   
    28    14    25 1   
    29    14    29 2   
    30    15    28 1   
    31    15    31 1   
    32    15    68 1   
    33    16    17 1   
    34    16    52 1   
    35    16    53 1   
    36    16    69 1   
    37    17    18 1   
    38    17    25 1   
    39    17    54 1   
    40    18    58 1   
    41    18    59 1   
    42    18    60 1   
    43    19    20 1   
    44    19    32 1   
    45    19    61 1   
    46    19    62 1   
    47    20    24 1   
    48    20    33 1   
    49    20    63 1   
    50    21    26 1   
    51    21    40 1   
    52    21    41 1   
    53    22    26 1   
    54    22    42 1   
    55    22    43 1   
    56    23    26 1   
    57    23    47 1   
    58    23    48 1   
    59    24    64 1   
    60    24    65 1   
    61    24    68 1   
    62    25    49 1   
    63    26    66 1   
    64    27    70 1   
    65    30    70 1   
    66    44    67 1   
    67    45    67 1   
    68    50    68 1   
    69    51    68 1   
    70    55    69 1   
    71    56    69 1   
    72    57    69 1   
@<TRIPOS>SUBSTRUCTURE
     1 ZSW         1 TEMP              0 ****  ****    0 ROOT
