@<TRIPOS>MOLECULE
ZSY
   42    45     1     0     0
SMALL
No Charge or Current Charge


@<TRIPOS>ATOM
      1 N1          28.7400     8.2880    58.6350 n          1 ZSY      -0.379800
      2 C7          32.1800     8.8600    66.5030 cc         1 ZSY      -0.197000
      3 C8          31.0970     9.6410    66.8020 cd         1 ZSY       0.138900
      4 N2          26.1120     8.1290    55.9530 nb         1 ZSY      -0.678000
      5 C9          29.9630     7.6100    61.4690 ca         1 ZSY       0.619300
      6 O1          30.1830     9.6510    65.7710 os         1 ZSY      -0.235000
      7 C1          28.7350     8.1850    61.1330 ca         1 ZSY      -0.213600
      8 C5          30.7470     8.8370    64.8090 cd         1 ZSY       0.051000
      9 C6          31.9570     8.3380    65.2150 cc         1 ZSY      -0.122000
     10 C4          30.0160     8.6220    63.5380 ca         1 ZSY       0.384000
     11 C3          28.7650     9.2270    63.3020 ca         1 ZSY      -0.186000
     12 C2          28.1040     9.0000    62.0850 ca         1 ZSY      -0.011000
     13 N           30.6000     7.8080    62.6240 nb         1 ZSY      -0.773000
     14 C           28.0780     7.9030    59.8270 c          1 ZSY       0.631700
     15 O           26.9810     7.3600    59.7990 o          1 ZSY      -0.575100
     16 C10         28.1420     7.9560    57.3120 c3         1 ZSY       0.052700
     17 C11         26.8540     8.6990    56.9350 ca         1 ZSY       0.345300
     18 C12         26.4760     9.9100    57.5560 ca         1 ZSY      -0.149000
     19 C13         25.2910    10.5490    57.1580 ca         1 ZSY      -0.071000
     20 C14         24.5250     9.9500    56.1460 ca         1 ZSY      -0.168000
     21 C15         24.9690     8.7470    55.5730 ca         1 ZSY       0.345900
     22 C16         29.9950     9.0430    58.6000 cx         1 ZSY       0.046700
     23 C17         30.1830    10.3030    57.7850 cx         1 ZSY      -0.133900
     24 C18         30.1710    10.3760    59.2910 cx         1 ZSY      -0.133900
     25 H3          33.0470     8.6720    67.1300 ha         1 ZSY       0.145000
     26 H4          30.8640    10.2230    67.6850 h4         1 ZSY       0.055100
     27 H2          32.6180     7.6760    64.6620 ha         1 ZSY       0.154000
     28 H1          28.3100     9.8650    64.0540 ha         1 ZSY       0.142000
     29 H           27.1360     9.4560    61.8830 ha         1 ZSY       0.132000
     30 H7          28.8820     8.1400    56.5230 h1         1 ZSY       0.075700
     31 H6          27.9340     6.8780    57.2960 h1         1 ZSY       0.075700
     32 H8          27.0900    10.3500    58.3350 ha         1 ZSY       0.122000
     33 H9          24.9760    11.4820    57.6210 ha         1 ZSY       0.116000
     34 H10         23.6000    10.4070    55.8050 ha         1 ZSY       0.123000
     35 H11         24.3940     8.2630    54.7840 h4         1 ZSY       0.018100
     36 H12         30.8240     8.3360    58.6190 h1         1 ZSY       0.088700
     37 H14         31.1360    10.4360    57.2790 hc         1 ZSY       0.079450
     38 H13         29.3270    10.7090    57.2530 hc         1 ZSY       0.079450
     39 H15         31.1130    10.5560    59.8020 hc         1 ZSY       0.079450
     40 H16         29.3020    10.8250    59.7670 hc         1 ZSY       0.079450
     41 H5          31.3780     6.5090    61.2340 ho         1 ZSY       0.487000
     42 O2          30.6010     6.7350    60.6860 oh         1 ZSY      -0.641300
@<TRIPOS>BOND
     1     1    14 1   
     2     1    16 1   
     3     1    22 1   
     4     2     3 2   
     5     2     9 1   
     6     2    25 1   
     7     3     6 1   
     8     3    26 1   
     9     4    17 ar  
    10     4    21 ar  
    11     5     7 ar  
    12     5    13 ar  
    13     5    42 1   
    14     6     8 1   
    15     7    12 ar  
    16     7    14 1   
    17     8     9 2   
    18     8    10 1   
    19     9    27 1   
    20    10    11 ar  
    21    10    13 ar  
    22    11    12 ar  
    23    11    28 1   
    24    12    29 1   
    25    14    15 2   
    26    16    17 1   
    27    16    30 1   
    28    16    31 1   
    29    17    18 ar  
    30    18    19 ar  
    31    18    32 1   
    32    19    20 ar  
    33    19    33 1   
    34    20    21 ar  
    35    20    34 1   
    36    21    35 1   
    37    22    23 1   
    38    22    24 1   
    39    22    36 1   
    40    23    24 1   
    41    23    37 1   
    42    23    38 1   
    43    24    39 1   
    44    24    40 1   
    45    41    42 1   
@<TRIPOS>SUBSTRUCTURE
     1 ZSY         1 TEMP              0 ****  ****    0 ROOT
