@<TRIPOS>MOLECULE
ZSY
   42    45     1     0     0
SMALL
abcg2


@<TRIPOS>ATOM
      1 N1          28.6810     8.3830    58.6920 n          1 ZSY      -0.379800
      2 C7          32.2000     8.8120    66.4810 cc         1 ZSY      -0.197000
      3 C8          31.1330     9.6010    66.7550 cd         1 ZSY       0.138900
      4 N2          26.2130     8.1330    55.9910 nb         1 ZSY      -0.678000
      5 C9          29.9650     7.6130    61.4890 ca         1 ZSY       0.619300
      6 O1          30.2690     9.5950    65.7240 os         1 ZSY      -0.235000
      7 C1          28.7780     8.2620    61.1250 ca         1 ZSY      -0.213600
      8 C5          30.7800     8.7930    64.7650 cd         1 ZSY       0.051000
      9 C6          31.9720     8.2820    65.1810 cc         1 ZSY      -0.122000
     10 C4          30.0300     8.6320    63.5330 ca         1 ZSY       0.384000
     11 C3          28.8340     9.2980    63.2940 ca         1 ZSY      -0.186000
     12 C2          28.2070     9.0870    62.0750 ca         1 ZSY      -0.011000
     13 N           30.5680     7.7960    62.6400 nb         1 ZSY      -0.773000
     14 C           28.0740     7.9910    59.8360 c          1 ZSY       0.631700
     15 O           26.9790     7.4510    59.8380 o          1 ZSY      -0.575100
     16 C10         28.1000     7.9520    57.4380 c3         1 ZSY       0.052700
     17 C11         26.8560     8.6920    57.0120 ca         1 ZSY       0.345300
     18 C12         26.4250     9.8750    57.6010 ca         1 ZSY      -0.149000
     19 C13         25.2870    10.4910    57.1030 ca         1 ZSY      -0.071000
     20 C14         24.6180     9.9100    56.0370 ca         1 ZSY      -0.168000
     21 C15         25.1260     8.7290    55.5190 ca         1 ZSY       0.345900
     22 C16         29.9410     9.0660    58.6610 cx         1 ZSY       0.046700
     23 C17         30.0630    10.3170    57.8470 cx         1 ZSY      -0.133900
     24 C18         30.0940    10.3890    59.3400 cx         1 ZSY      -0.133900
     25 H3          33.0450     8.6300    67.1250 ha         1 ZSY       0.145000
     26 H4          30.8630    10.2030    67.6080 h4         1 ZSY       0.055100
     27 H2          32.6080     7.6120    64.6270 ha         1 ZSY       0.154000
     28 H1          28.3980     9.9620    64.0260 ha         1 ZSY       0.142000
     29 H           27.2750     9.5930    61.8560 ha         1 ZSY       0.132000
     30 H7          28.8600     8.0780    56.6660 h1         1 ZSY       0.075700
     31 H6          27.8700     6.8850    57.4720 h1         1 ZSY       0.075700
     32 H8          26.9620    10.3080    58.4340 ha         1 ZSY       0.122000
     33 H9          24.9300    11.4120    57.5440 ha         1 ZSY       0.116000
     34 H10         23.7260    10.3550    55.6180 ha         1 ZSY       0.123000
     35 H11         24.6320     8.2400    54.6860 h4         1 ZSY       0.018100
     36 H12         30.8110     8.4180    58.6530 h1         1 ZSY       0.088700
     37 H14         30.9820    10.4560    57.2940 hc         1 ZSY       0.079450
     38 H13         29.1780    10.6900    57.3460 hc         1 ZSY       0.079450
     39 H15         31.0310    10.5890    59.8420 hc         1 ZSY       0.079450
     40 H16         29.2250    10.8030    59.8340 hc         1 ZSY       0.079450
     41 H5          31.3120     6.3840    61.0050 ho         1 ZSY       0.487000
     42 O2          30.4950     6.7430    60.6290 oh         1 ZSY      -0.641300
@<TRIPOS>BOND
     1     1    14 1   
     2     1    16 1   
     3     1    22 1   
     4     2     3 2   
     5     2     9 1   
     6     2    25 1   
     7     3     6 1   
     8     3    26 1   
     9     4    17 ar  
    10     4    21 ar  
    11     5     7 ar  
    12     5    13 ar  
    13     5    42 1   
    14     6     8 1   
    15     7    12 ar  
    16     7    14 1   
    17     8     9 2   
    18     8    10 1   
    19     9    27 1   
    20    10    11 ar  
    21    10    13 ar  
    22    11    12 ar  
    23    11    28 1   
    24    12    29 1   
    25    14    15 2   
    26    16    17 1   
    27    16    30 1   
    28    16    31 1   
    29    17    18 ar  
    30    18    19 ar  
    31    18    32 1   
    32    19    20 ar  
    33    19    33 1   
    34    20    21 ar  
    35    20    34 1   
    36    21    35 1   
    37    22    23 1   
    38    22    24 1   
    39    22    36 1   
    40    23    24 1   
    41    23    37 1   
    42    23    38 1   
    43    24    39 1   
    44    24    40 1   
    45    41    42 1   
@<TRIPOS>SUBSTRUCTURE
     1 ZSY         1 TEMP              0 ****  ****    0 ROOT
