@<TRIPOS>MOLECULE
ZT0
   60    63     1     0     0
SMALL
abcg2


@<TRIPOS>ATOM
      1 C1           1.5850    -4.9650    -1.2250 ca         1 ZT0      -0.094000
      2 C2           0.2870    -5.4210    -1.3890 ca         1 ZT0      -0.100000
      3 C3           1.8400    -3.9140    -0.3560 ca         1 ZT0      -0.090000
      4 C4          -0.7450    -4.8150    -0.6870 ca         1 ZT0      -0.108000
      5 C5          -4.9080     0.2960     0.3340 ca         1 ZT0      -0.110000
      6 C6           3.0640     1.7570     0.2500 ca         1 ZT0      -0.054500
      7 C7           4.7830     0.3220     1.0790 ca         1 ZT0      -0.054500
      8 C8          -5.4920     1.4430    -0.2140 ca         1 ZT0      -0.107000
      9 C9           4.0100     2.5110    -0.4200 ca         1 ZT0      -0.181500
     10 C10          5.7480     1.0660     0.4110 ca         1 ZT0      -0.181500
     11 C11          0.8100    -3.3060     0.3570 ca         1 ZT0      -0.102600
     12 C12         -2.6550     1.1980     0.0880 ca         1 ZT0      -0.132600
     13 C13          3.4360     0.6520     1.0150 ca         1 ZT0      -0.155300
     14 C14         -0.5070    -3.7580     0.1860 ca         1 ZT0      -0.084300
     15 C15         -3.5370     0.1570     0.4820 ca         1 ZT0      -0.124300
     16 C16         -4.6330     2.4350    -0.6000 ca         1 ZT0       0.061100
     17 C17         -3.2570     2.3210    -0.4420 ca         1 ZT0       0.096100
     18 C18          5.3620     2.1710    -0.3460 ca         1 ZT0       0.143100
     19 C19          1.1630    -2.2360     1.3490 c          1 ZT0       0.606700
     20 C21         -3.7010     4.3090    -1.3560 c5         1 ZT0       0.368600
     21 C22         -2.7960    -2.1980    -1.1000 c3         1 ZT0       0.089900
     22 C25         -1.6800    -3.1320     0.8880 c3         1 ZT0       0.156900
     23 C26         -3.0430    -1.1160     1.1110 c3         1 ZT0       0.165900
     24 N27          2.0540    -1.3330     0.9180 ns         1 ZT0      -0.459900
     25 N28         -2.1680    -1.9040     0.1990 nx         1 ZT0      -0.749000
     26 O29         -0.5570     2.2090     0.4170 o          1 ZT0      -0.649500
     27 O30          0.7080    -2.2290     2.4850 o          1 ZT0      -0.622100
     28 O31         -0.5800     0.0250     0.0400 o          1 ZT0      -0.649500
     29 O32         -4.9310     3.6190    -1.1760 os         1 ZT0      -0.347100
     30 O33         -2.6680     3.4360    -0.9250 os         1 ZT0      -0.304100
     31 O34          6.2160     2.9580    -1.0290 os         1 ZT0      -0.342100
     32 H1           2.4010    -5.4300    -1.7620 ha         1 ZT0       0.123000
     33 H2           0.0760    -6.2470    -2.0550 ha         1 ZT0       0.121000
     34 H3           2.8600    -3.5830    -0.2140 ha         1 ZT0       0.130000
     35 H4          -1.7580    -5.1750    -0.8160 ha         1 ZT0       0.110000
     36 H5          -5.5550    -0.5120     0.6520 ha         1 ZT0       0.109000
     37 H8          -6.5630     1.5300    -0.3310 ha         1 ZT0       0.135000
     38 H9           3.7090     3.3730    -1.0040 ha         1 ZT0       0.122000
     39 H7           5.1000    -0.5340     1.6640 ha         1 ZT0       0.133500
     40 H10          6.7850     0.7720     0.4960 ha         1 ZT0       0.122000
     41 H251        -2.5130    -3.8350     0.9310 hx         1 ZT0       0.087700
     42 H252        -1.4260    -2.8540     1.9060 hx         1 ZT0       0.087700
     43 H261        -2.4450    -0.9140     2.0020 hx         1 ZT0       0.078200
     44 H262        -3.8860    -1.7370     1.4140 hx         1 ZT0       0.078200
     45 H27          2.2200    -1.2670    -0.0740 hn         1 ZT0       0.321500
     46 H211        -3.5640     4.5550    -2.4110 h2         1 ZT0       0.066200
     47 H212        -3.6950     5.2190    -0.7490 h2         1 ZT0       0.066200
     48 H221        -3.1250    -1.2730    -1.5640 hx         1 ZT0       0.071367
     49 H222        -2.0660    -2.6720    -1.7500 hx         1 ZT0       0.071367
     50 H223        -3.6490    -2.8610    -0.9660 hx         1 ZT0       0.071367
     51 H231         8.0980     3.4060    -1.5880 h1         1 ZT0       0.038367
     52 H232         7.9890     2.7160     0.0410 h1         1 ZT0       0.038367
     53 H233         7.8160     1.6680    -1.3850 h1         1 ZT0       0.038367
     54 H28         -1.3610    -1.1630     0.0390 hn         1 ZT0       0.592000
     55 C24          2.4010    -0.1740     1.7200 c3         1 ZT0       0.150300
     56 H6           2.0160     2.0290     0.1850 ha         1 ZT0       0.133500
     57 C23          7.5960     2.6590    -0.9780 c3         1 ZT0       0.149900
     58 H241         2.7770    -0.5100     2.6880 h1         1 ZT0       0.067200
     59 H242         1.5060     0.4260     1.9050 h1         1 ZT0       0.067200
     60 C20         -1.1420     1.1500     0.2010 c          1 ZT0       0.734600
@<TRIPOS>BOND
     1     1     2 ar  
     2     1     3 ar  
     3     1    32 1   
     4     2     4 ar  
     5     2    33 1   
     6     3    11 ar  
     7     3    34 1   
     8     4    14 ar  
     9     4    35 1   
    10     5     8 ar  
    11     5    15 ar  
    12     5    36 1   
    13     6     9 ar  
    14     6    13 ar  
    15     6    56 1   
    16     7    10 ar  
    17     7    13 ar  
    18     7    39 1   
    19     8    16 ar  
    20     8    37 1   
    21     9    18 ar  
    22     9    38 1   
    23    10    18 ar  
    24    10    40 1   
    25    11    14 ar  
    26    11    19 1   
    27    12    15 ar  
    28    12    17 ar  
    29    12    60 1   
    30    13    55 1   
    31    14    22 1   
    32    15    23 1   
    33    16    17 ar  
    34    16    29 1   
    35    17    30 1   
    36    18    31 1   
    37    19    24 1   
    38    19    27 2   
    39    20    29 1   
    40    20    30 1   
    41    20    46 1   
    42    20    47 1   
    43    21    25 1   
    44    21    48 1   
    45    21    49 1   
    46    21    50 1   
    47    22    25 1   
    48    22    41 1   
    49    22    42 1   
    50    23    25 1   
    51    23    43 1   
    52    23    44 1   
    53    24    45 1   
    54    24    55 1   
    55    25    54 1   
    56    26    60 1   
    57    28    60 1   
    58    31    57 1   
    59    51    57 1   
    60    52    57 1   
    61    53    57 1   
    62    55    58 1   
    63    55    59 1   
@<TRIPOS>SUBSTRUCTURE
     1 ZT0         1 TEMP              0 ****  ****    0 ROOT
