@<TRIPOS>MOLECULE
ZT0
   60    63     1     0     0
SMALL
No Charge or Current Charge


@<TRIPOS>ATOM
      1 C1           1.6120    -4.6940    -1.4250 ca         1 ZT0      -0.094000
      2 C2           0.3550    -5.3010    -1.5290 ca         1 ZT0      -0.100000
      3 C3           1.8040    -3.6160    -0.5470 ca         1 ZT0      -0.090000
      4 C4          -0.7110    -4.8270    -0.7530 ca         1 ZT0      -0.108000
      5 C5          -5.0310     0.3570     0.5860 ca         1 ZT0      -0.110000
      6 C6           3.2840     1.7380     0.0290 ca         1 ZT0      -0.054500
      7 C7           4.9490     0.4850     1.2860 ca         1 ZT0      -0.054500
      8 C8          -5.5690     1.5280     0.0160 ca         1 ZT0      -0.107000
      9 C9           4.3100     2.4380    -0.6270 ca         1 ZT0      -0.181500
     10 C10          5.9750     1.1870     0.6290 ca         1 ZT0      -0.181500
     11 C11          0.7390    -3.1180     0.2490 ca         1 ZT0      -0.102600
     12 C12         -2.7540     1.0820    -0.0030 ca         1 ZT0      -0.132600
     13 C13          3.5990     0.7590     0.9900 ca         1 ZT0      -0.155300
     14 C14         -0.5350    -3.7470     0.1340 ca         1 ZT0      -0.084300
     15 C15         -3.6330     0.1240     0.5830 ca         1 ZT0      -0.124300
     16 C16         -4.6820     2.4510    -0.5440 ca         1 ZT0       0.061100
     17 C17         -3.3310     2.2390    -0.5540 ca         1 ZT0       0.096100
     18 C18          5.6570     2.1700    -0.3330 ca         1 ZT0       0.143100
     19 C19          0.9900    -1.9500     1.1980 c          1 ZT0       0.606700
     20 C21         -3.7290     4.2180    -1.4590 c5         1 ZT0       0.368600
     21 C22         -3.3990    -2.5460    -0.9000 c3         1 ZT0       0.089900
     22 C25         -1.7610    -3.2680     0.8940 c3         1 ZT0       0.156900
     23 C26         -3.1150    -1.1620     1.2100 c3         1 ZT0       0.165900
     24 N27          2.0820    -1.1630     0.9110 ns         1 ZT0      -0.459900
     25 N28         -2.4580    -2.1010     0.2180 nx         1 ZT0      -0.749000
     26 O29         -0.5540     1.7230     0.4870 o          1 ZT0      -0.649500
     27 O30          0.3110    -1.7290     2.1920 o          1 ZT0      -0.622100
     28 O31         -0.8410    -0.1010    -0.6390 o          1 ZT0      -0.649500
     29 O32         -5.0330     3.6110    -1.1560 os         1 ZT0      -0.347100
     30 O33         -2.6650     3.2400    -1.1890 os         1 ZT0      -0.304100
     31 O34          6.6200     2.8900    -1.0100 os         1 ZT0      -0.342100
     32 H1           2.4430    -5.0630    -2.0220 ha         1 ZT0       0.123000
     33 H2           0.2060    -6.1350    -2.2100 ha         1 ZT0       0.121000
     34 H3           2.8020    -3.1890    -0.4810 ha         1 ZT0       0.130000
     35 H4          -1.6880    -5.2980    -0.8470 ha         1 ZT0       0.110000
     36 H5          -5.7020    -0.3770     1.0280 ha         1 ZT0       0.109000
     37 H8          -6.6410     1.7090     0.0080 ha         1 ZT0       0.135000
     38 H9           4.0610     3.1930    -1.3680 ha         1 ZT0       0.122000
     39 H7           5.2030    -0.2730     2.0250 ha         1 ZT0       0.133500
     40 H10          7.0060     0.9540     0.8780 ha         1 ZT0       0.122000
     41 H251        -2.4840    -4.0810     0.9990 hx         1 ZT0       0.087700
     42 H252        -1.4820    -2.9680     1.9060 hx         1 ZT0       0.087700
     43 H261        -2.3790    -0.9190     1.9820 hx         1 ZT0       0.078200
     44 H262        -3.9340    -1.7010     1.6940 hx         1 ZT0       0.078200
     45 H27          2.5890    -1.3670     0.0610 hn         1 ZT0       0.321500
     46 H211        -3.6950     4.5240    -2.5110 h2         1 ZT0       0.066200
     47 H212        -3.5820     5.0880    -0.8090 h2         1 ZT0       0.066200
     48 H221        -3.8130    -1.6660    -1.3980 hx         1 ZT0       0.071367
     49 H222        -2.8450    -3.1490    -1.6230 hx         1 ZT0       0.071367
     50 H223        -4.2110    -3.1400    -0.4740 hx         1 ZT0       0.071367
     51 H231         8.6130     3.3630    -1.4210 h1         1 ZT0       0.038367
     52 H232         8.2860     2.9030     0.2630 h1         1 ZT0       0.038367
     53 H233         8.3180     1.6590    -1.0170 h1         1 ZT0       0.038367
     54 H28         -1.6970    -1.5210    -0.2300 hn         1 ZT0       0.592000
     55 C24          2.4890    -0.0030     1.6950 c3         1 ZT0       0.150300
     56 H6           2.2440     1.9540    -0.2100 ha         1 ZT0       0.133500
     57 C23          8.0270     2.6910    -0.7820 c3         1 ZT0       0.149900
     58 H241         2.8290    -0.3400     2.6830 h1         1 ZT0       0.067200
     59 H242         1.6220     0.6550     1.8420 h1         1 ZT0       0.067200
     60 C20         -1.2630     0.8940    -0.0630 c          1 ZT0       0.734600
@<TRIPOS>BOND
     1     1     2 ar  
     2     1     3 ar  
     3     1    32 1   
     4     2     4 ar  
     5     2    33 1   
     6     3    11 ar  
     7     3    34 1   
     8     4    14 ar  
     9     4    35 1   
    10     5     8 ar  
    11     5    15 ar  
    12     5    36 1   
    13     6     9 ar  
    14     6    13 ar  
    15     6    56 1   
    16     7    10 ar  
    17     7    13 ar  
    18     7    39 1   
    19     8    16 ar  
    20     8    37 1   
    21     9    18 ar  
    22     9    38 1   
    23    10    18 ar  
    24    10    40 1   
    25    11    14 ar  
    26    11    19 1   
    27    12    15 ar  
    28    12    17 ar  
    29    12    60 1   
    30    13    55 1   
    31    14    22 1   
    32    15    23 1   
    33    16    17 ar  
    34    16    29 1   
    35    17    30 1   
    36    18    31 1   
    37    19    24 1   
    38    19    27 2   
    39    20    29 1   
    40    20    30 1   
    41    20    46 1   
    42    20    47 1   
    43    21    25 1   
    44    21    48 1   
    45    21    49 1   
    46    21    50 1   
    47    22    25 1   
    48    22    41 1   
    49    22    42 1   
    50    23    25 1   
    51    23    43 1   
    52    23    44 1   
    53    24    45 1   
    54    24    55 1   
    55    25    54 1   
    56    26    60 1   
    57    28    60 1   
    58    31    57 1   
    59    51    57 1   
    60    52    57 1   
    61    53    57 1   
    62    55    58 1   
    63    55    59 1   
@<TRIPOS>SUBSTRUCTURE
     1 ZT0         1 TEMP              0 ****  ****    0 ROOT
