@<TRIPOS>MOLECULE
ZT1
   45    45     1     0     0
SMALL
No Charge or Current Charge


@<TRIPOS>ATOM
      1 O           15.3620    26.7050    25.8390 o          1 ZT1      -0.735500
      2 C           14.3810    26.6590    25.1070 c          1 ZT1       0.689000
      3 CA          14.3230    27.6400    23.8610 c3         1 ZT1       0.014500
      4 N           14.5110    29.1050    24.1690 n8         1 ZT1      -1.002200
      5 CB          15.3100    27.2060    22.7420 c3         1 ZT1      -0.045400
      6 CG          15.0740    25.7700    22.2150 c3         1 ZT1      -0.073400
      7 CD          16.0280    25.3870    21.0600 c3         1 ZT1      -0.076400
      8 CE          15.7720    23.9610    20.5210 c3         1 ZT1       0.165800
      9 NZ          16.8380    23.3390    19.6730 n3         1 ZT1      -0.718600
     10 CAB         17.2200    24.0550    18.4140 c3         1 ZT1       0.191500
     11 CAC         18.1240    25.2930    18.6240 c3         1 ZT1      -0.100600
     12 CAA         16.0320    24.3640    17.4710 c3         1 ZT1      -0.100600
     13 CAQ         16.5620    21.9000    19.4230 c3         1 ZT1       0.255100
     14 CAP         16.5690    21.0710    20.6810 cc         1 ZT1      -0.209300
     15 CAR         17.6370    20.7370    21.4730 cd         1 ZT1       0.255900
     16 NAS         17.2340    19.9560    22.5380 nd         1 ZT1      -0.676000
     17 CAT         15.9220    19.8200    22.4020 cc         1 ZT1       0.393400
     18 NAN         15.4700    20.4840    21.2800 na         1 ZT1      -0.164500
     19 CAO         14.0730    20.5510    20.8240 c3         1 ZT1       0.057900
     20 HA          13.3100    27.5460    23.4430 h1         1 ZT1       0.035700
     21 H           13.8090    29.3930    24.8620 hn         1 ZT1       0.381000
     22 H2          15.3970    29.2130    24.6790 hn         1 ZT1       0.381000
     23 HB2         16.3390    27.2840    23.1150 hc         1 ZT1       0.023200
     24 HB3         15.2250    27.9040    21.9000 hc         1 ZT1       0.023200
     25 HG2         14.0370    25.6800    21.8690 hc         1 ZT1       0.049200
     26 HG3         15.2030    25.0530    23.0340 hc         1 ZT1       0.049200
     27 HD2         17.0640    25.4650    21.4100 hc         1 ZT1       0.036200
     28 HD3         15.8860    26.1110    20.2520 hc         1 ZT1       0.036200
     29 HE2         14.8150    23.9620    19.9830 h1         1 ZT1       0.030700
     30 HE3         15.6210    23.3310    21.4060 h1         1 ZT1       0.030700
     31 H15         17.8650    23.3680    17.8500 h1         1 ZT1       0.030700
     32 H16         18.8580    25.1090    19.4170 hc         1 ZT1       0.035533
     33 H17         18.6760    25.5100    17.7020 hc         1 ZT1       0.035533
     34 H18         17.5530    26.1920    18.8720 hc         1 ZT1       0.035533
     35 H19         15.4560    23.4580    17.2510 hc         1 ZT1       0.035533
     36 H20         15.3570    25.1060    17.9120 hc         1 ZT1       0.035533
     37 H21         16.3980    24.7660    16.5180 hc         1 ZT1       0.035533
     38 H22         15.5980    21.7820    18.9100 h1         1 ZT1       0.027700
     39 H23         17.3280    21.4800    18.7590 h1         1 ZT1       0.027700
     40 H24         18.6760    21.0130    21.3320 h4         1 ZT1       0.038100
     41 H25         15.2590    19.2690    23.0600 h5         1 ZT1       0.049100
     42 H26         13.4200    20.0310    21.5360 h1         1 ZT1       0.051033
     43 H27         13.7600    21.6000    20.7490 h1         1 ZT1       0.051033
     44 H28         13.9840    20.0750    19.8400 h1         1 ZT1       0.051033
     45 OXT         13.3900    25.9890    25.3630 o          1 ZT1      -0.735500
@<TRIPOS>BOND
     1     1     2 1   
     2     2     3 1   
     3     2    45 1   
     4     3     4 1   
     5     3     5 1   
     6     3    20 1   
     7     4    21 1   
     8     4    22 1   
     9     5     6 1   
    10     5    23 1   
    11     5    24 1   
    12     6     7 1   
    13     6    25 1   
    14     6    26 1   
    15     7     8 1   
    16     7    27 1   
    17     7    28 1   
    18     8     9 1   
    19     8    29 1   
    20     8    30 1   
    21     9    10 1   
    22     9    13 1   
    23    10    11 1   
    24    10    12 1   
    25    10    31 1   
    26    11    32 1   
    27    11    33 1   
    28    11    34 1   
    29    12    35 1   
    30    12    36 1   
    31    12    37 1   
    32    13    14 1   
    33    13    38 1   
    34    13    39 1   
    35    14    15 2   
    36    14    18 1   
    37    15    16 1   
    38    15    40 1   
    39    16    17 2   
    40    17    18 1   
    41    17    41 1   
    42    18    19 1   
    43    19    42 1   
    44    19    43 1   
    45    19    44 1   
@<TRIPOS>SUBSTRUCTURE
     1 ZT1         1 TEMP              0 ****  ****    0 ROOT
