@<TRIPOS>MOLECULE
ZT1
   45    45     1     0     0
SMALL
abcg2


@<TRIPOS>ATOM
      1 O           15.4090    26.8130    25.7420 o          1 ZT1      -0.735500
      2 C           14.4180    26.6380    25.0000 c          1 ZT1       0.689000
      3 CA          14.3120    27.5870    23.7820 c3         1 ZT1       0.014500
      4 N           14.5930    28.9880    24.0930 n8         1 ZT1      -1.002200
      5 CB          15.2800    27.1340    22.6880 c3         1 ZT1      -0.045400
      6 CG          15.0650    25.7160    22.1750 c3         1 ZT1      -0.073400
      7 CD          16.0410    25.3540    21.0600 c3         1 ZT1      -0.076400
      8 CE          15.8010    23.9430    20.5420 c3         1 ZT1       0.165800
      9 NZ          16.8580    23.3740    19.7190 n3         1 ZT1      -0.718600
     10 CAB         17.1540    24.0620    18.4530 c3         1 ZT1       0.191500
     11 CAC         18.1150    25.2350    18.6260 c3         1 ZT1      -0.100600
     12 CAA         15.9260    24.4660    17.6360 c3         1 ZT1      -0.100600
     13 CAQ         16.6090    21.9540    19.4830 c3         1 ZT1       0.255100
     14 CAP         16.5960    21.1480    20.7390 cc         1 ZT1      -0.209300
     15 CAR         17.6050    20.8380    21.6110 cd         1 ZT1       0.255900
     16 NAS         17.1390    20.0810    22.6440 nd         1 ZT1      -0.676000
     17 CAT         15.8610    19.9310    22.4050 cc         1 ZT1       0.393400
     18 NAN         15.4790    20.5530    21.2700 na         1 ZT1      -0.164500
     19 CAO         14.1360    20.5830    20.7360 c3         1 ZT1       0.057900
     20 HA          13.2940    27.5350    23.3810 h1         1 ZT1       0.035700
     21 H           13.8930    29.3250    24.7440 hn         1 ZT1       0.381000
     22 H2          15.4610    29.0100    24.6180 hn         1 ZT1       0.381000
     23 HB2         16.3050    27.2280    23.0680 hc         1 ZT1       0.023200
     24 HB3         15.2020    27.8340    21.8490 hc         1 ZT1       0.023200
     25 HG2         14.0370    25.6100    21.8120 hc         1 ZT1       0.049200
     26 HG3         15.1750    24.9950    22.9890 hc         1 ZT1       0.049200
     27 HD2         17.0670    25.4320    21.4340 hc         1 ZT1       0.036200
     28 HD3         15.9430    26.0870    20.2560 hc         1 ZT1       0.036200
     29 HE2         14.8200    23.9100    20.0370 h1         1 ZT1       0.030700
     30 HE3         15.7040    23.2970    21.4190 h1         1 ZT1       0.030700
     31 H15         17.7010    23.3270    17.8560 h1         1 ZT1       0.030700
     32 H16         18.9720    24.9450    19.2340 hc         1 ZT1       0.035533
     33 H17         18.4880    25.5470    17.6490 hc         1 ZT1       0.035533
     34 H18         17.6500    26.1050    19.0860 hc         1 ZT1       0.035533
     35 H19         15.2390    23.6310    17.4860 hc         1 ZT1       0.035533
     36 H20         15.3670    25.2770    18.1060 hc         1 ZT1       0.035533
     37 H21         16.2340    24.8150    16.6500 hc         1 ZT1       0.035533
     38 H22         15.6780    21.7780    18.9220 h1         1 ZT1       0.027700
     39 H23         17.4140    21.5760    18.8490 h1         1 ZT1       0.027700
     40 H24         18.6430    21.1280    21.5360 h4         1 ZT1       0.038100
     41 H25         15.1600    19.3770    23.0140 h5         1 ZT1       0.049100
     42 H26         13.4830    20.0230    21.4010 h1         1 ZT1       0.051033
     43 H27         13.7670    21.6050    20.6680 h1         1 ZT1       0.051033
     44 H28         14.0980    20.1280    19.7480 h1         1 ZT1       0.051033
     45 OXT         13.5340    25.7660    25.1260 o          1 ZT1      -0.735500
@<TRIPOS>BOND
     1     1     2 1   
     2     2     3 1   
     3     2    45 1   
     4     3     4 1   
     5     3     5 1   
     6     3    20 1   
     7     4    21 1   
     8     4    22 1   
     9     5     6 1   
    10     5    23 1   
    11     5    24 1   
    12     6     7 1   
    13     6    25 1   
    14     6    26 1   
    15     7     8 1   
    16     7    27 1   
    17     7    28 1   
    18     8     9 1   
    19     8    29 1   
    20     8    30 1   
    21     9    10 1   
    22     9    13 1   
    23    10    11 1   
    24    10    12 1   
    25    10    31 1   
    26    11    32 1   
    27    11    33 1   
    28    11    34 1   
    29    12    35 1   
    30    12    36 1   
    31    12    37 1   
    32    13    14 1   
    33    13    38 1   
    34    13    39 1   
    35    14    15 2   
    36    14    18 1   
    37    15    16 1   
    38    15    40 1   
    39    16    17 2   
    40    17    18 1   
    41    17    41 1   
    42    18    19 1   
    43    19    42 1   
    44    19    43 1   
    45    19    44 1   
@<TRIPOS>SUBSTRUCTURE
     1 ZT1         1 TEMP              0 ****  ****    0 ROOT
