@<TRIPOS>MOLECULE
ZT2
   34    37     1     0     0
SMALL
bcc


@<TRIPOS>ATOM
      1 C1          -2.3670    -2.7470     1.1260 ca         1 ZT2      -0.132000
      2 C2          -3.7580    -2.7080     1.1550 ca         1 ZT2      -0.152000
      3 C3          -1.6370    -1.6800     0.6200 ca         1 ZT2      -0.106000
      4 C4           0.7020    -0.7510    -1.5280 ca         1 ZT2      -0.146000
      5 C5          -4.4350    -1.5890     0.6860 ca         1 ZT2      -0.122000
      6 C6           1.8470    -1.5360    -1.6870 ca         1 ZT2      -0.147000
      7 C7          -2.3100    -0.5610     0.1360 ca         1 ZT2       0.001200
      8 C8           0.6680     0.3350    -0.6610 ca         1 ZT2      -0.073800
      9 C9           1.8040     0.6970     0.1020 ca         1 ZT2      -0.093600
     10 C10         -3.7100    -0.5220     0.1840 ca         1 ZT2      -0.102300
     11 C11          2.9430    -1.1740    -0.9480 ca         1 ZT2       0.024100
     12 C12          2.9250    -0.0890    -0.0790 ca         1 ZT2       0.077100
     13 C13         -1.8040     0.7010    -0.4100 ce         1 ZT2      -0.238400
     14 C14         -2.9800     1.5670    -0.6640 c          1 ZT2       0.589300
     15 C15         -0.5580     1.1470    -0.6520 cf         1 ZT2       0.128800
     16 C16          1.7560     1.8390     1.0990 c          1 ZT2       0.924200
     17 C17         -4.2350     0.7800    -0.3350 c5         1 ZT2      -0.142100
     18 C18          4.9820    -0.9400    -0.1150 c5         1 ZT2       0.319200
     19 O19          0.6580     2.4200     1.2040 o          1 ZT2      -0.800800
     20 O20         -2.9590     2.7060    -1.0780 o          1 ZT2      -0.541100
     21 O21          2.7990     2.0900     1.7260 o          1 ZT2      -0.800800
     22 O22          4.1510    -1.7810    -0.9000 os         1 ZT2      -0.343900
     23 O23          4.1340    -0.0020     0.5260 os         1 ZT2      -0.272900
     24 H1          -1.8470    -3.6170     1.5050 ha         1 ZT2       0.121000
     25 H2          -4.3120    -3.5500     1.5510 ha         1 ZT2       0.114000
     26 H3          -0.5570    -1.7280     0.6110 ha         1 ZT2       0.152000
     27 H5          -5.5170    -1.5510     0.7190 ha         1 ZT2       0.117000
     28 H15         -0.4680     2.1710    -0.9960 ha         1 ZT2       0.164000
     29 H171        -4.8480     0.6650    -1.2340 hc         1 ZT2       0.068200
     30 H172        -4.8470     1.3190     0.3940 hc         1 ZT2       0.068200
     31 H181         5.5100    -1.5340     0.6320 h2         1 ZT2       0.044700
     32 H182         5.6970    -0.4170    -0.7600 h2         1 ZT2       0.044700
     33 H4          -0.1790    -0.9940    -2.1080 ha         1 ZT2       0.125000
     34 H6           1.8630    -2.3810    -2.3620 ha         1 ZT2       0.130000
@<TRIPOS>BOND
     1     1     2 ar  
     2     1     3 ar  
     3     1    24 1   
     4     2     5 ar  
     5     2    25 1   
     6     3     7 ar  
     7     3    26 1   
     8     4     6 ar  
     9     4     8 ar  
    10     4    33 1   
    11     5    10 ar  
    12     5    27 1   
    13     6    11 ar  
    14     6    34 1   
    15     7    10 ar  
    16     7    13 1   
    17     8     9 ar  
    18     8    15 1   
    19     9    12 ar  
    20     9    16 1   
    21    10    17 1   
    22    11    12 ar  
    23    11    22 1   
    24    12    23 1   
    25    13    14 1   
    26    13    15 2   
    27    14    17 1   
    28    14    20 2   
    29    15    28 1   
    30    16    19 1   
    31    16    21 1   
    32    17    29 1   
    33    17    30 1   
    34    18    22 1   
    35    18    23 1   
    36    18    31 1   
    37    18    32 1   
@<TRIPOS>SUBSTRUCTURE
     1 ZT2         1 TEMP              0 ****  ****    0 ROOT
