@<TRIPOS>MOLECULE
ZT2
   34    37     1     0     0
SMALL
No Charge or Current Charge


@<TRIPOS>ATOM
      1 C1          -2.5160    -2.8700     0.9390 ca         1 ZT2      -0.114000
      2 C2          -3.9250    -2.8030     0.9300 ca         1 ZT2      -0.134000
      3 C3          -1.7490    -1.7580     0.5380 ca         1 ZT2      -0.088000
      4 C4           0.7100    -0.9050    -1.3690 ca         1 ZT2      -0.128000
      5 C5          -4.5750    -1.6170     0.5390 ca         1 ZT2      -0.104000
      6 C6           1.8860    -1.6730    -1.4770 ca         1 ZT2      -0.129000
      7 C7          -2.4120    -0.5950     0.1060 ca         1 ZT2       0.001200
      8 C8           0.6860     0.2890    -0.6030 ca         1 ZT2      -0.073800
      9 C9           1.8760     0.7400     0.0340 ca         1 ZT2      -0.093600
     10 C10         -3.7950    -0.5210     0.1390 ca         1 ZT2      -0.102300
     11 C11          3.0320    -1.2110    -0.8240 ca         1 ZT2       0.024100
     12 C12          3.0310    -0.0500    -0.1010 ca         1 ZT2       0.077100
     13 C13         -1.8450     0.7080    -0.3220 ce         1 ZT2      -0.238400
     14 C14         -2.9900     1.6730    -0.4670 c          1 ZT2       0.589300
     15 C15         -0.5510     1.0920    -0.5440 cf         1 ZT2       0.078800
     16 C16          1.9190     2.0080     0.8440 c          1 ZT2       0.713600
     17 C17         -4.2850     0.8480    -0.2590 c5         1 ZT2      -0.142100
     18 C18          5.0820    -0.8800    -0.0760 c5         1 ZT2       0.365600
     19 O19          1.1850     2.0950     1.8190 o          1 ZT2      -0.695500
     20 O20         -2.8900     2.8740    -0.6890 o          1 ZT2      -0.541100
     21 O21          2.6390     2.9170     0.4560 o          1 ZT2      -0.695500
     22 O22          4.2370    -1.8340    -0.8100 os         1 ZT2      -0.367100
     23 O23          4.2410     0.1950     0.4680 os         1 ZT2      -0.296100
     24 H1          -2.0190    -3.7790     1.2680 ha         1 ZT2       0.103000
     25 H2          -4.5120    -3.6630     1.2460 ha         1 ZT2       0.096000
     26 H3          -0.6660    -1.8070     0.5910 ha         1 ZT2       0.134000
     27 H5          -5.6600    -1.5480     0.5560 ha         1 ZT2       0.099000
     28 H15         -0.3840     2.1420    -0.7970 ha         1 ZT2       0.214000
     29 H171        -4.8480     0.8420    -1.1980 hc         1 ZT2       0.068200
     30 H172        -4.9160     1.3430     0.4870 hc         1 ZT2       0.068200
     31 H181         5.6000    -1.3940     0.7420 h2         1 ZT2       0.044700
     32 H182         5.8100    -0.4430    -0.7700 h2         1 ZT2       0.044700
     33 H4          -0.1900    -1.2350    -1.8850 ha         1 ZT2       0.107000
     34 H6           1.9050    -2.5950    -2.0530 ha         1 ZT2       0.112000
@<TRIPOS>BOND
     1     1     2 ar  
     2     1     3 ar  
     3     1    24 1   
     4     2     5 ar  
     5     2    25 1   
     6     3     7 ar  
     7     3    26 1   
     8     4     6 ar  
     9     4     8 ar  
    10     4    33 1   
    11     5    10 ar  
    12     5    27 1   
    13     6    11 ar  
    14     6    34 1   
    15     7    10 ar  
    16     7    13 1   
    17     8     9 ar  
    18     8    15 1   
    19     9    12 ar  
    20     9    16 1   
    21    10    17 1   
    22    11    12 ar  
    23    11    22 1   
    24    12    23 1   
    25    13    14 1   
    26    13    15 2   
    27    14    17 1   
    28    14    20 2   
    29    15    28 1   
    30    16    19 1   
    31    16    21 1   
    32    17    29 1   
    33    17    30 1   
    34    18    22 1   
    35    18    23 1   
    36    18    31 1   
    37    18    32 1   
@<TRIPOS>SUBSTRUCTURE
     1 ZT2         1 TEMP              0 ****  ****    0 ROOT
