@<TRIPOS>MOLECULE
ZT4
   36    39     1     0     0
SMALL
bcc


@<TRIPOS>ATOM
      1 C1          -2.1690    -2.6600     1.3590 ca         1 ZT4      -0.136000
      2 C2          -3.5460    -2.7990     1.2120 ca         1 ZT4      -0.147000
      3 C3          -1.5200    -1.5170     0.9100 ca         1 ZT4      -0.095000
      4 C4           0.5120    -0.7190    -1.5280 ca         1 ZT4      -0.142000
      5 C5          -4.2980    -1.7890     0.6220 ca         1 ZT4      -0.128000
      6 C6           1.6150    -1.5600    -1.6830 ca         1 ZT4      -0.149000
      7 C7          -2.2670    -0.5090     0.3070 ca         1 ZT4      -0.021800
      8 C8           0.5460     0.4210    -0.7280 ca         1 ZT4      -0.058800
      9 C9           1.7250     0.7730    -0.0300 ca         1 ZT4      -0.088600
     10 C10         -3.6530    -0.6470     0.1760 ca         1 ZT4      -0.100300
     11 C11          2.7490    -1.2100    -0.9940 ca         1 ZT4       0.024100
     12 C12          2.7920    -0.0870    -0.1820 ca         1 ZT4       0.066100
     13 C13         -1.8680     0.8010    -0.2220 ce         1 ZT4      -0.155400
     14 C14         -0.6780     1.2410    -0.6360 cf         1 ZT4       0.006800
     15 C15          1.8370     1.9930     0.8700 c          1 ZT4       0.932200
     16 C16         -4.2420     0.5670    -0.4840 c5         1 ZT4      -0.031100
     17 C17          4.8300    -0.9620    -0.2870 c5         1 ZT4       0.320200
     18 C18         -3.1490     1.6220    -0.2680 c5         1 ZT4       0.190300
     19 O19          2.4580     1.8290     1.9350 o          1 ZT4      -0.811300
     20 O20          1.3100     3.0420     0.4580 o          1 ZT4      -0.811300
     21 O21          3.9450    -1.8500    -0.9540 os         1 ZT4      -0.344900
     22 O22          4.0270    -0.0040     0.3810 os         1 ZT4      -0.281900
     23 O23         -3.1980     2.6220    -1.2480 oh         1 ZT4      -0.601800
     24 H1          -1.5990    -3.4480     1.8330 ha         1 ZT4       0.123000
     25 H2          -4.0360    -3.6960     1.5700 ha         1 ZT4       0.114000
     26 H3          -0.4510    -1.4160     1.0400 ha         1 ZT4       0.158000
     27 H5          -5.3710    -1.8950     0.5190 ha         1 ZT4       0.117000
     28 H14         -0.5960     2.2690    -0.9640 ha         1 ZT4       0.158000
     29 H161        -4.3770     0.3900    -1.5570 hc         1 ZT4       0.053200
     30 H162        -5.2080     0.8600    -0.0730 hc         1 ZT4       0.053200
     31 H171         5.4300    -1.5120     0.4370 h2         1 ZT4       0.043200
     32 H172         5.4770    -0.4630    -1.0190 h2         1 ZT4       0.043200
     33 H23         -2.7250     3.3940    -0.9250 ho         1 ZT4       0.415000
     34 H18         -3.3000     2.0520     0.7330 h1         1 ZT4       0.036700
     35 H4          -0.4050    -0.9620    -2.0500 ha         1 ZT4       0.123000
     36 H6           1.5750    -2.4360    -2.3160 ha         1 ZT4       0.128000
@<TRIPOS>BOND
     1     1     2 ar  
     2     1     3 ar  
     3     1    24 1   
     4     2     5 ar  
     5     2    25 1   
     6     3     7 ar  
     7     3    26 1   
     8     4     6 ar  
     9     4     8 ar  
    10     4    35 1   
    11     5    10 ar  
    12     5    27 1   
    13     6    11 ar  
    14     6    36 1   
    15     7    10 ar  
    16     7    13 1   
    17     8     9 ar  
    18     8    14 1   
    19     9    12 ar  
    20     9    15 1   
    21    10    16 1   
    22    11    12 ar  
    23    11    21 1   
    24    12    22 1   
    25    13    14 2   
    26    13    18 1   
    27    14    28 1   
    28    15    19 1   
    29    15    20 1   
    30    16    18 1   
    31    16    29 1   
    32    16    30 1   
    33    17    21 1   
    34    17    22 1   
    35    17    31 1   
    36    17    32 1   
    37    18    23 1   
    38    18    34 1   
    39    23    33 1   
@<TRIPOS>SUBSTRUCTURE
     1 ZT4         1 TEMP              0 ****  ****    0 ROOT
