@<TRIPOS>MOLECULE
ZT4
   36    39     1     0     0
SMALL
No Charge or Current Charge


@<TRIPOS>ATOM
      1 C1          -2.4500    -2.9370     1.0630 ca         1 ZT4      -0.118000
      2 C2          -3.8600    -2.8780     1.0760 ca         1 ZT4      -0.129000
      3 C3          -1.6990    -1.8170     0.6560 ca         1 ZT4      -0.077000
      4 C4           0.6440    -0.8760    -1.3770 ca         1 ZT4      -0.124000
      5 C5          -4.5250    -1.6950     0.6980 ca         1 ZT4      -0.110000
      6 C6           1.8320    -1.6110    -1.5610 ca         1 ZT4      -0.131000
      7 C7          -2.3870    -0.6610     0.2480 ca         1 ZT4      -0.021800
      8 C8           0.6420     0.3330    -0.6350 ca         1 ZT4      -0.058800
      9 C9           1.8610     0.8280    -0.0950 ca         1 ZT4      -0.088600
     10 C10         -3.7640    -0.5860     0.2930 ca         1 ZT4      -0.100300
     11 C11          3.0070    -1.1080    -0.9950 ca         1 ZT4       0.024100
     12 C12          3.0230     0.0640    -0.2920 ca         1 ZT4       0.066100
     13 C13         -1.8730     0.6430    -0.1760 ce         1 ZT4      -0.155400
     14 C14         -0.6150     1.0890    -0.4800 cf         1 ZT4      -0.043200
     15 C15          1.9290     2.1110     0.6850 c          1 ZT4       0.721600
     16 C16         -4.3010     0.7770    -0.1170 c5         1 ZT4      -0.031100
     17 C17          5.0630    -0.7920    -0.2560 c5         1 ZT4       0.366600
     18 C18         -3.0000     1.6880    -0.2310 c5         1 ZT4       0.213500
     19 O19          2.0610     2.0440     1.9000 o          1 ZT4      -0.706000
     20 O20          1.8230     3.1650     0.0720 o          1 ZT4      -0.706000
     21 O21          4.2370    -1.6740    -1.0940 os         1 ZT4      -0.368100
     22 O22          4.2740     0.3840     0.1350 os         1 ZT4      -0.305100
     23 O23         -2.9910     2.4450    -1.4420 oh         1 ZT4      -0.664000
     24 H1          -1.9410    -3.8460     1.3770 ha         1 ZT4       0.105000
     25 H2          -4.4360    -3.7450     1.3950 ha         1 ZT4       0.096000
     26 H3          -0.6140    -1.8500     0.6800 ha         1 ZT4       0.140000
     27 H5          -5.6110    -1.6400     0.7250 ha         1 ZT4       0.099000
     28 H14         -0.5070     2.1500    -0.7160 ha         1 ZT4       0.208000
     29 H161        -4.8350     0.7110    -1.0720 hc         1 ZT4       0.053200
     30 H162        -5.0070     1.1820     0.6160 hc         1 ZT4       0.053200
     31 H171         5.3590    -1.3370     0.6480 h2         1 ZT4       0.043200
     32 H172         5.9510    -0.4740    -0.8140 h2         1 ZT4       0.043200
     33 H23         -3.7490     3.0680    -1.3890 ho         1 ZT4       0.454000
     34 H18         -2.9290     2.3600     0.6360 h1         1 ZT4       0.036700
     35 H4          -0.2810    -1.2410    -1.8180 ha         1 ZT4       0.105000
     36 H6           1.8380    -2.5370    -2.1300 ha         1 ZT4       0.110000
@<TRIPOS>BOND
     1     1     2 ar  
     2     1     3 ar  
     3     1    24 1   
     4     2     5 ar  
     5     2    25 1   
     6     3     7 ar  
     7     3    26 1   
     8     4     6 ar  
     9     4     8 ar  
    10     4    35 1   
    11     5    10 ar  
    12     5    27 1   
    13     6    11 ar  
    14     6    36 1   
    15     7    10 ar  
    16     7    13 1   
    17     8     9 ar  
    18     8    14 1   
    19     9    12 ar  
    20     9    15 1   
    21    10    16 1   
    22    11    12 ar  
    23    11    21 1   
    24    12    22 1   
    25    13    14 2   
    26    13    18 1   
    27    14    28 1   
    28    15    19 1   
    29    15    20 1   
    30    16    18 1   
    31    16    29 1   
    32    16    30 1   
    33    17    21 1   
    34    17    22 1   
    35    17    31 1   
    36    17    32 1   
    37    18    23 1   
    38    18    34 1   
    39    23    33 1   
@<TRIPOS>SUBSTRUCTURE
     1 ZT4         1 TEMP              0 ****  ****    0 ROOT
