@<TRIPOS>MOLECULE
ZT7
   23    24     1     0     0
SMALL
No Charge or Current Charge


@<TRIPOS>ATOM
      1 C13         26.7820   -38.4720     8.3820 cc         1 ZT7      -0.205400
      2 C01         26.6070   -38.2250    11.3700 c3         1 ZT7      -0.175100
      3 C02         27.3040   -39.3970    10.6780 c          1 ZT7       0.615100
      4 O03         27.8210   -40.2870    11.3460 o          1 ZT7      -0.530100
      5 N04         27.3370   -39.4280     9.2560 n          1 ZT7      -0.155200
      6 C05         27.9440   -40.4460     8.5010 cc         1 ZT7      -0.128400
      7 C06         27.7580   -40.1070     7.1060 ca         1 ZT7      -0.127000
      8 C07         28.1690   -40.7860     5.9520 ca         1 ZT7      -0.038000
      9 C08         27.8450   -40.2150     4.7020 ca         1 ZT7      -0.150000
     10 C09         27.1290   -38.9970     4.6300 ca         1 ZT7       0.283000
     11 N10         26.8230   -38.4550     3.4110 nv         1 ZT7      -1.076000
     12 C11         26.7280   -38.3370     5.8080 ca         1 ZT7      -0.177000
     13 C12         27.0600   -38.9210     7.0360 ca         1 ZT7      -0.034000
     14 H1          26.2700   -37.6090     8.7940 h4         1 ZT7       0.218000
     15 H2          26.6410   -38.3030    12.4620 hc         1 ZT7       0.074033
     16 H3          27.0520   -37.2870    11.0200 hc         1 ZT7       0.074033
     17 H4          25.5760   -38.1560    11.0050 hc         1 ZT7       0.074033
     18 H5          28.4210   -41.2660     9.0310 h4         1 ZT7       0.236000
     19 H6          28.7190   -41.7220     6.0170 ha         1 ZT7       0.114000
     20 H7          28.1510   -40.7200     3.7910 ha         1 ZT7       0.109000
     21 H8          26.4310   -37.5160     3.3570 hn         1 ZT7       0.444000
     22 H9          27.2250   -38.8480     2.5620 hn         1 ZT7       0.444000
     23 H10         26.1770   -37.4010     5.7700 ha         1 ZT7       0.111000
@<TRIPOS>BOND
     1     1     5 1   
     2     1    13 2   
     3     1    14 1   
     4     2     3 1   
     5     2    15 1   
     6     2    16 1   
     7     2    17 1   
     8     3     4 2   
     9     3     5 1   
    10     5     6 1   
    11     6     7 2   
    12     6    18 1   
    13     7     8 ar  
    14     7    13 ar  
    15     8     9 ar  
    16     8    19 1   
    17     9    10 ar  
    18     9    20 1   
    19    10    11 1   
    20    10    12 ar  
    21    11    21 1   
    22    11    22 1   
    23    12    13 ar  
    24    12    23 1   
@<TRIPOS>SUBSTRUCTURE
     1 ZT7         1 TEMP              0 ****  ****    0 ROOT
