@<TRIPOS>MOLECULE
ZT7
   23    24     1     0     0
SMALL
abcg2


@<TRIPOS>ATOM
      1 C13         26.7690   -38.4680     8.3840 cc         1 ZT7      -0.205400
      2 C01         26.6210   -38.2340    11.2890 c3         1 ZT7      -0.175100
      3 C02         27.3160   -39.3970    10.6430 c          1 ZT7       0.615100
      4 O03         27.8470   -40.2920    11.2680 o          1 ZT7      -0.530100
      5 N04         27.3310   -39.4190     9.2370 n          1 ZT7      -0.155200
      6 C05         27.9330   -40.4250     8.5030 cc         1 ZT7      -0.128400
      7 C06         27.7580   -40.1230     7.1710 ca         1 ZT7      -0.127000
      8 C07         28.1540   -40.7770     5.9700 ca         1 ZT7      -0.038000
      9 C08         27.8230   -40.2190     4.7760 ca         1 ZT7      -0.150000
     10 C09         27.0880   -38.9780     4.6850 ca         1 ZT7       0.283000
     11 N10         26.7520   -38.5320     3.4100 nv         1 ZT7      -1.076000
     12 C11         26.6960   -38.3170     5.8220 ca         1 ZT7      -0.177000
     13 C12         27.0160   -38.8750     7.0910 ca         1 ZT7      -0.034000
     14 H1          26.2540   -37.6060     8.7660 h4         1 ZT7       0.218000
     15 H2          26.6910   -38.3440    12.3670 hc         1 ZT7       0.074033
     16 H3          27.0820   -37.2930    10.9840 hc         1 ZT7       0.074033
     17 H4          25.5710   -38.2020    10.9910 hc         1 ZT7       0.074033
     18 H5          28.4210   -41.2460     8.9940 h4         1 ZT7       0.236000
     19 H6          28.7100   -41.7060     6.0110 ha         1 ZT7       0.114000
     20 H7          28.1090   -40.7050     3.8500 ha         1 ZT7       0.109000
     21 H8          26.4850   -37.5600     3.3480 hn         1 ZT7       0.444000
     22 H9          27.3930   -38.7970     2.6760 hn         1 ZT7       0.444000
     23 H10         26.1500   -37.3840     5.7520 ha         1 ZT7       0.111000
@<TRIPOS>BOND
     1     1     5 1   
     2     1    13 2   
     3     1    14 1   
     4     2     3 1   
     5     2    15 1   
     6     2    16 1   
     7     2    17 1   
     8     3     4 2   
     9     3     5 1   
    10     5     6 1   
    11     6     7 2   
    12     6    18 1   
    13     7     8 ar  
    14     7    13 ar  
    15     8     9 ar  
    16     8    19 1   
    17     9    10 ar  
    18     9    20 1   
    19    10    11 1   
    20    10    12 ar  
    21    11    21 1   
    22    11    22 1   
    23    12    13 ar  
    24    12    23 1   
@<TRIPOS>SUBSTRUCTURE
     1 ZT7         1 TEMP              0 ****  ****    0 ROOT
