@<TRIPOS>MOLECULE
ZTA
   28    30     1     0     0
SMALL
No Charge or Current Charge


@<TRIPOS>ATOM
      1 C4          28.6430    18.5710    10.6040 ca         1 ZTA      -0.072000
      2 C5          29.9460    18.8290    11.0650 ca         1 ZTA      -0.094000
      3 C6          30.3400    20.1440    11.4170 ca         1 ZTA       0.057000
      4 C7          30.8500    17.7590    11.1670 ca         1 ZTA      -0.017000
      5 C8          32.1540    17.9900    11.6130 ca         1 ZTA      -0.166000
      6 C10         31.6680    20.3750    11.8890 ca         1 ZTA      -0.333600
      7 C13         26.3380    24.0980    10.6380 cc         1 ZTA       0.137900
      8 C15         25.7830    21.9340    10.4100 cd         1 ZTA      -0.155000
      9 C1          29.3860    21.1840    11.2710 ca         1 ZTA      -0.111000
     10 C11         32.1410    21.7480    12.3200 c          1 ZTA       0.599500
     11 C12         27.1210    22.0420    10.6750 cc         1 ZTA       0.175500
     12 C14         25.2860    23.2550    10.3850 cd         1 ZTA      -0.186000
     13 C2          28.0760    20.9320    10.8090 ca         1 ZTA      -0.085500
     14 C3          27.7140    19.6120    10.4780 ca         1 ZTA      -0.114000
     15 C9          32.5600    19.2790    11.9680 ca         1 ZTA       0.252100
     16 O1          27.4870    23.3590    10.8240 os         1 ZTA      -0.253000
     17 O2          33.8390    19.4460    12.3970 oh         1 ZTA      -0.545100
     18 H1          28.3460    17.5590    10.3360 ha         1 ZTA       0.116000
     19 H2          30.5450    16.7510    10.8950 ha         1 ZTA       0.119000
     20 H3          32.8550    17.1630    11.6860 ha         1 ZTA       0.139000
     21 H4          26.4070    25.1750    10.7120 h4         1 ZTA       0.054100
     22 H5          25.2120    21.0250    10.2550 ha         1 ZTA       0.142000
     23 H6          29.6390    22.2110    11.5030 ha         1 ZTA       0.126000
     24 H7          31.3860    22.5480    12.4530 h4         1 ZTA       0.012200
     25 H10         24.2600    23.5590    10.2030 ha         1 ZTA       0.144000
     26 H11         26.7180    19.3790    10.1120 ha         1 ZTA       0.120000
     27 H12         33.9490    20.4220    12.5380 ho         1 ZTA       0.524000
     28 O3          33.3250    21.9940    12.5410 o          1 ZTA      -0.586100
@<TRIPOS>BOND
     1     1     2 ar  
     2     1    14 ar  
     3     1    18 1   
     4     2     3 ar  
     5     2     4 ar  
     6     3     6 ar  
     7     3     9 ar  
     8     4     5 ar  
     9     4    19 1   
    10     5    15 ar  
    11     5    20 1   
    12     6    10 1   
    13     6    15 ar  
    14     7    12 2   
    15     7    16 1   
    16     7    21 1   
    17     8    11 2   
    18     8    12 1   
    19     8    22 1   
    20     9    13 ar  
    21     9    23 1   
    22    10    24 1   
    23    10    28 2   
    24    11    13 1   
    25    11    16 1   
    26    12    25 1   
    27    13    14 ar  
    28    14    26 1   
    29    15    17 1   
    30    17    27 1   
@<TRIPOS>SUBSTRUCTURE
     1 ZTA         1 TEMP              0 ****  ****    0 ROOT
