@<TRIPOS>MOLECULE
ZTA
   28    30     1     0     0
SMALL
abcg2


@<TRIPOS>ATOM
      1 C4          28.6210    18.5600    10.6320 ca         1 ZTA      -0.072000
      2 C5          29.9370    18.8240    11.0760 ca         1 ZTA      -0.094000
      3 C6          30.3130    20.1590    11.4040 ca         1 ZTA       0.057000
      4 C7          30.8870    17.7800    11.1970 ca         1 ZTA      -0.017000
      5 C8          32.1640    18.0130    11.6230 ca         1 ZTA      -0.166000
      6 C10         31.6620    20.4020    11.8600 ca         1 ZTA      -0.333600
      7 C13         26.3900    24.0470    10.7590 cc         1 ZTA       0.137900
      8 C15         25.7600    21.9580    10.3060 cd         1 ZTA      -0.155000
      9 C1          29.3460    21.1730    11.2640 ca         1 ZTA      -0.111000
     10 C11         32.1200    21.7160    12.2270 c          1 ZTA       0.599500
     11 C12         27.0760    21.9510    10.6810 cc         1 ZTA       0.175500
     12 C14         25.3190    23.3140    10.3590 cd         1 ZTA      -0.186000
     13 C2          28.0600    20.8970    10.8230 ca         1 ZTA      -0.085500
     14 C3          27.7010    19.5630    10.5060 ca         1 ZTA      -0.114000
     15 C9          32.5610    19.3240    11.9590 ca         1 ZTA       0.252100
     16 O1          27.4660    23.2370    10.9590 os         1 ZTA      -0.253000
     17 O2          33.8190    19.4950    12.3740 oh         1 ZTA      -0.545100
     18 H1          28.3520    17.5400    10.3880 ha         1 ZTA       0.116000
     19 H2          30.5800    16.7740    10.9410 ha         1 ZTA       0.119000
     20 H3          32.8880    17.2140    11.7150 ha         1 ZTA       0.139000
     21 H4          26.5460    25.0960    10.9410 h4         1 ZTA       0.054100
     22 H5          25.1710    21.0990    10.0300 ha         1 ZTA       0.142000
     23 H6          29.5920    22.1960    11.5000 ha         1 ZTA       0.126000
     24 H7          31.4090    22.5460    12.1520 h4         1 ZTA       0.012200
     25 H10         24.3360    23.6900    10.1300 ha         1 ZTA       0.144000
     26 H11         26.7000    19.3420    10.1610 ha         1 ZTA       0.120000
     27 H12         33.9280    20.4660    12.5720 ho         1 ZTA       0.524000
     28 O3          33.2690    21.9670    12.6260 o          1 ZTA      -0.586100
@<TRIPOS>BOND
     1     1     2 ar  
     2     1    14 ar  
     3     1    18 1   
     4     2     3 ar  
     5     2     4 ar  
     6     3     6 ar  
     7     3     9 ar  
     8     4     5 ar  
     9     4    19 1   
    10     5    15 ar  
    11     5    20 1   
    12     6    10 1   
    13     6    15 ar  
    14     7    12 2   
    15     7    16 1   
    16     7    21 1   
    17     8    11 2   
    18     8    12 1   
    19     8    22 1   
    20     9    13 ar  
    21     9    23 1   
    22    10    24 1   
    23    10    28 2   
    24    11    13 1   
    25    11    16 1   
    26    12    25 1   
    27    13    14 ar  
    28    14    26 1   
    29    15    17 1   
    30    17    27 1   
@<TRIPOS>SUBSTRUCTURE
     1 ZTA         1 TEMP              0 ****  ****    0 ROOT
