@<TRIPOS>MOLECULE
ZTD
   52    54     1     0     0
SMALL
bcc


@<TRIPOS>ATOM
      1 CAA          2.3890     4.9220    -0.9070 c3         1 ZTD      -0.132400
      2 CAW          2.7260     3.4780    -1.0170 cc         1 ZTD       0.344600
      3 CAK          2.9630     2.5570     0.0370 cc         1 ZTD      -0.382600
      4 NAQ          2.8460     2.8940    -2.1750 nd         1 ZTD      -0.359300
      5 OAT          3.1610     1.5910    -1.9190 os         1 ZTD      -0.108100
      6 CAZ          3.2250     1.3950    -0.6010 cd         1 ZTD       0.300000
      7 CAM          3.5460     0.0350    -0.1100 c3         1 ZTD      -0.193700
      8 CAU          2.3480    -0.8960    -0.2170 c          1 ZTD       0.688100
      9 OAB          1.3180    -0.5550    -0.7790 o          1 ZTD      -0.588100
     10 N            2.4900    -2.1070     0.3360 n          1 ZTD      -0.463800
     11 CD2          3.6710    -2.6380     0.9980 c5         1 ZTD       0.069000
     12 CG           3.4700    -4.1440     0.8780 c5         1 ZTD       0.133100
     13 OD1          3.7970    -4.6190    -0.4060 oh         1 ZTD      -0.587800
     14 CB           1.9660    -4.2750     1.0570 c5         1 ZTD      -0.082400
     15 CA           1.3930    -3.0570     0.3130 c5         1 ZTD       0.035700
     16 C            0.1790    -2.5020     1.0480 c          1 ZTD       0.663100
     17 O            0.2980    -1.8400     2.0650 o          1 ZTD      -0.588100
     18 NAR         -1.0040    -2.8700     0.5320 ns         1 ZTD      -0.565900
     19 CAL         -2.2650    -2.5150     1.1270 c3         1 ZTD       0.147300
     20 CAX         -2.8230    -1.1800     0.6950 ca         1 ZTD      -0.078300
     21 CAE         -2.1290    -0.3060    -0.1330 ca         1 ZTD      -0.138000
     22 CAG         -2.6860     0.9100    -0.4940 ca         1 ZTD      -0.070000
     23 CAF         -4.0880    -0.8080     1.1510 ca         1 ZTD      -0.138000
     24 CAH         -4.6490     0.4030     0.7900 ca         1 ZTD      -0.070000
     25 CAY         -3.9490     1.2790    -0.0400 ca         1 ZTD      -0.147600
     26 CBA         -4.4950     2.5920    -0.4590 c          1 ZTD       0.655700
     27 CAI         -6.3510     4.0360    -0.3540 c3         1 ZTD       0.130700
     28 OAD         -3.8870     3.3900    -1.1330 o          1 ZTD      -0.539000
     29 OAS         -5.7250     2.7980    -0.0170 os         1 ZTD      -0.418900
     30 HAA1         3.2130     5.4750    -0.4550 hc         1 ZTD       0.056033
     31 HAA2         2.1800     5.3540    -1.8830 hc         1 ZTD       0.056033
     32 HAA3         1.5150     5.0630    -0.2710 hc         1 ZTD       0.056033
     33 HAK          2.9370     2.7400     1.0980 ha         1 ZTD       0.170000
     34 HAM1         4.3860    -0.3850    -0.6720 hc         1 ZTD       0.080700
     35 HAM2         3.8760     0.1050     0.9290 hc         1 ZTD       0.080700
     36 HD21         4.5930    -2.3040     0.5220 h1         1 ZTD       0.055200
     37 HD22         3.7060    -2.3390     2.0500 h1         1 ZTD       0.055200
     38 HA           1.1350    -3.3150    -0.7180 h1         1 ZTD       0.080700
     39 HG           4.0220    -4.6750     1.6610 h1         1 ZTD       0.053700
     40 HD1          4.7400    -4.4920    -0.5510 ho         1 ZTD       0.408000
     41 HB1C         1.5710    -5.2160     0.6760 hc         1 ZTD       0.073700
     42 HB2C         1.7320    -4.2190     2.1220 hc         1 ZTD       0.073700
     43 HAR         -1.0200    -3.3590    -0.3480 hn         1 ZTD       0.319500
     44 HAL1        -2.9840    -3.2980     0.8820 h1         1 ZTD       0.063700
     45 HAL2        -2.1600    -2.5230     2.2130 h1         1 ZTD       0.063700
     46 HAF         -4.6420    -1.4780     1.7980 ha         1 ZTD       0.146000
     47 HAE         -1.1470    -0.5670    -0.5040 ha         1 ZTD       0.146000
     48 HAH         -5.6330     0.6560     1.1620 ha         1 ZTD       0.152000
     49 HAG         -2.1280     1.5780    -1.1380 ha         1 ZTD       0.152000
     50 HAI1        -5.8060     4.8830     0.0640 h1         1 ZTD       0.047367
     51 HAI2        -6.4340     4.1600    -1.4330 h1         1 ZTD       0.047367
     52 HAI3        -7.3440     3.9960     0.0830 h1         1 ZTD       0.047367
@<TRIPOS>BOND
     1     1     2 1   
     2     1    30 1   
     3     1    31 1   
     4     1    32 1   
     5     2     3 1   
     6     2     4 2   
     7     3     6 2   
     8     3    33 1   
     9     4     5 1   
    10     5     6 1   
    11     6     7 1   
    12     7     8 1   
    13     7    34 1   
    14     7    35 1   
    15     8     9 2   
    16     8    10 1   
    17    10    11 1   
    18    10    15 1   
    19    11    12 1   
    20    11    36 1   
    21    11    37 1   
    22    12    13 1   
    23    12    14 1   
    24    12    39 1   
    25    13    40 1   
    26    14    15 1   
    27    14    41 1   
    28    14    42 1   
    29    15    16 1   
    30    15    38 1   
    31    16    17 2   
    32    16    18 1   
    33    18    19 1   
    34    18    43 1   
    35    19    20 1   
    36    19    44 1   
    37    19    45 1   
    38    20    21 ar  
    39    20    23 ar  
    40    21    22 ar  
    41    21    47 1   
    42    22    25 ar  
    43    22    49 1   
    44    23    24 ar  
    45    23    46 1   
    46    24    25 ar  
    47    24    48 1   
    48    25    26 1   
    49    26    28 2   
    50    26    29 1   
    51    27    29 1   
    52    27    50 1   
    53    27    51 1   
    54    27    52 1   
@<TRIPOS>SUBSTRUCTURE
     1 ZTD         1 TEMP              0 ****  ****    0 ROOT
