@<TRIPOS>MOLECULE
ZTD
   52    54     1     0     0
SMALL
No Charge or Current Charge


@<TRIPOS>ATOM
      1 CAA          3.5530     3.3750     3.0170 c3         1 ZTD      -0.132400
      2 CAW          3.5690     2.9810     1.5700 cc         1 ZTD       0.279300
      3 CAK          3.4880     1.6440     1.1500 cc         1 ZTD      -0.234000
      4 NAQ          3.6600     3.8420     0.5700 nd         1 ZTD      -0.359300
      5 OAT          3.6350     3.0050    -0.6050 os         1 ZTD      -0.063700
      6 CAZ          3.5280     1.6990    -0.2020 cd         1 ZTD       0.190300
      7 CAM          3.4790     0.6050    -1.2240 c3         1 ZTD      -0.193700
      8 CAU          2.2750    -0.3040    -0.9750 c          1 ZTD       0.621100
      9 OAB          1.1630     0.0330    -1.3610 o          1 ZTD      -0.588100
     10 N            2.4460    -1.4890    -0.2260 n          1 ZTD      -0.396800
     11 CD2          3.7470    -2.1840    -0.0550 c5         1 ZTD       0.069000
     12 CG           3.3260    -3.6280     0.3570 c5         1 ZTD       0.156300
     13 OD1          3.0820    -4.4710    -0.7750 oh         1 ZTD      -0.650000
     14 CB           2.0200    -3.3540     1.1420 c5         1 ZTD      -0.082400
     15 CA           1.2930    -2.3060     0.2460 c5         1 ZTD       0.035700
     16 C            0.2560    -1.5420     1.1310 c          1 ZTD       0.596100
     17 O            0.4350    -0.5050     1.7590 o          1 ZTD      -0.588100
     18 NAR         -0.9450    -2.2200     1.1170 ns         1 ZTD      -0.498900
     19 CAL         -2.1550    -1.7720     1.8070 c3         1 ZTD       0.147300
     20 CAX         -3.0520    -0.9600     0.8830 ca         1 ZTD      -0.078300
     21 CAE         -4.0910    -1.5830     0.1690 ca         1 ZTD      -0.120000
     22 CAG         -4.9150    -0.8340    -0.6890 ca         1 ZTD      -0.052000
     23 CAF         -2.8440     0.4220     0.7270 ca         1 ZTD      -0.120000
     24 CAH         -3.6660     1.1760    -0.1290 ca         1 ZTD      -0.052000
     25 CAY         -4.7140     0.5550    -0.8480 ca         1 ZTD      -0.147600
     26 CBA         -5.6110     1.3440    -1.7760 c          1 ZTD       0.606700
     27 CAI         -6.1020     3.5220    -2.6910 c3         1 ZTD       0.153900
     28 OAD         -6.5240     0.8320    -2.4110 o          1 ZTD      -0.490000
     29 OAS         -5.3060     2.6810    -1.8360 os         1 ZTD      -0.442100
     30 HAA1         4.4440     2.9960     3.5300 hc         1 ZTD       0.056033
     31 HAA2         3.5320     4.4650     3.1330 hc         1 ZTD       0.056033
     32 HAA3         2.6700     2.9650     3.5200 hc         1 ZTD       0.056033
     33 HAK          3.4050     0.7710     1.7860 ha         1 ZTD       0.152000
     34 HAM1         3.3780     1.0490    -2.2200 hc         1 ZTD       0.080700
     35 HAM2         4.4210     0.0540    -1.1670 hc         1 ZTD       0.080700
     36 HD21         4.3430    -2.1880    -0.9770 h1         1 ZTD       0.055200
     37 HD22         4.3370    -1.7030     0.7370 h1         1 ZTD       0.055200
     38 HA           0.7800    -2.7750    -0.6040 h1         1 ZTD       0.080700
     39 HG           4.0850    -4.0890     1.0040 h1         1 ZTD       0.053700
     40 HD1          3.9500    -4.6350    -1.2050 ho         1 ZTD       0.447000
     41 HB1C         1.4240    -4.2590     1.3030 hc         1 ZTD       0.073700
     42 HB2C         2.2510    -2.9420     2.1320 hc         1 ZTD       0.073700
     43 HAR         -0.9940    -3.0670     0.5640 hn         1 ZTD       0.319500
     44 HAL1        -2.6990    -2.6540     2.1700 h1         1 ZTD       0.063700
     45 HAL2        -1.8820    -1.1710     2.6850 h1         1 ZTD       0.063700
     46 HAF         -2.0410     0.9160     1.2690 ha         1 ZTD       0.128000
     47 HAE         -4.2610    -2.6530     0.2750 ha         1 ZTD       0.128000
     48 HAH         -3.4790     2.2430    -0.2280 ha         1 ZTD       0.134000
     49 HAG         -5.7130    -1.3390    -1.2300 ha         1 ZTD       0.134000
     50 HAI1        -6.0370     3.1910    -3.7360 h1         1 ZTD       0.047367
     51 HAI2        -7.1560     3.5070    -2.3850 h1         1 ZTD       0.047367
     52 HAI3        -5.7480     4.5600    -2.6420 h1         1 ZTD       0.047367
@<TRIPOS>BOND
     1     1     2 1   
     2     1    30 1   
     3     1    31 1   
     4     1    32 1   
     5     2     3 1   
     6     2     4 2   
     7     3     6 2   
     8     3    33 1   
     9     4     5 1   
    10     5     6 1   
    11     6     7 1   
    12     7     8 1   
    13     7    34 1   
    14     7    35 1   
    15     8     9 2   
    16     8    10 1   
    17    10    11 1   
    18    10    15 1   
    19    11    12 1   
    20    11    36 1   
    21    11    37 1   
    22    12    13 1   
    23    12    14 1   
    24    12    39 1   
    25    13    40 1   
    26    14    15 1   
    27    14    41 1   
    28    14    42 1   
    29    15    16 1   
    30    15    38 1   
    31    16    17 2   
    32    16    18 1   
    33    18    19 1   
    34    18    43 1   
    35    19    20 1   
    36    19    44 1   
    37    19    45 1   
    38    20    21 ar  
    39    20    23 ar  
    40    21    22 ar  
    41    21    47 1   
    42    22    25 ar  
    43    22    49 1   
    44    23    24 ar  
    45    23    46 1   
    46    24    25 ar  
    47    24    48 1   
    48    25    26 1   
    49    26    28 2   
    50    26    29 1   
    51    27    29 1   
    52    27    50 1   
    53    27    51 1   
    54    27    52 1   
@<TRIPOS>SUBSTRUCTURE
     1 ZTD         1 TEMP              0 ****  ****    0 ROOT
