@<TRIPOS>MOLECULE
ZTE
   44    46     1     0     0
SMALL
No Charge or Current Charge


@<TRIPOS>ATOM
      1 C02        -28.5440    13.8620    -6.5960 ca         1 ZTE       0.439900
      2 C03        -27.5010    14.1040    -5.7040 ca         1 ZTE      -0.354000
      3 C04        -26.2120    13.9430    -6.1520 ca         1 ZTE       0.165800
      4 C05        -25.2220    14.2180    -5.1440 cc         1 ZTE      -0.287800
      5 C06        -25.7980    14.5890    -3.9330 cd         1 ZTE       0.014400
      6 C07        -25.0720    14.9390    -2.6860 ca         1 ZTE      -0.049800
      7 C08        -23.6600    14.9110    -2.6350 ca         1 ZTE      -0.038000
      8 C09        -22.9740    15.2360    -1.4520 ca         1 ZTE      -0.133000
      9 C10        -23.6820    15.5970    -0.2970 ca         1 ZTE      -0.019000
     10 C11        -25.0880    15.6360    -0.3260 ca         1 ZTE      -0.296500
     11 C15        -26.8490    13.5310     1.6050 c          1 ZTE       0.617100
     12 C16        -26.7760    12.3250     2.6170 c3         1 ZTE       0.108500
     13 C17        -26.2490    11.0460     1.9200 c3         1 ZTE      -0.168400
     14 C18        -25.6900     9.9550     2.8370 c          1 ZTE       0.607100
     15 C24        -25.7770    15.3070    -1.5140 ca         1 ZTE       0.015000
     16 C27        -27.0000    13.3520    -8.2070 ca         1 ZTE       0.170900
     17 N01        -29.8440    13.9980    -6.2460 nv         1 ZTE      -1.078900
     18 N14        -26.1810    14.6530     2.0010 ns         1 ZTE      -0.589300
     19 N19        -25.3930     8.7850     2.2370 nt         1 ZTE      -0.604000
     20 N21        -28.0510    12.0160     3.3450 n8         1 ZTE      -0.984200
     21 N26        -25.9260    13.5640    -7.4100 nb         1 ZTE      -0.193000
     22 N28        -28.3040    13.4840    -7.8600 nb         1 ZTE      -0.281000
     23 O13        -25.1590    16.9270     2.0090 o          1 ZTE      -0.520500
     24 O20        -25.4950    10.0970     4.0330 o          1 ZTE      -0.614100
     25 O22        -27.4470    13.4630     0.5390 o          1 ZTE      -0.515100
     26 O23        -27.3590    16.5050     0.7690 o          1 ZTE      -0.520500
     27 S12        -26.0080    16.0870     1.1580 sy         1 ZTE       1.179300
     28 S25        -27.5960    14.6050    -4.0050 ss         1 ZTE       0.110400
     29 H051       -24.1560    14.1420    -5.3240 ha         1 ZTE       0.218000
     30 H081       -23.0740    14.6350    -3.5060 ha         1 ZTE       0.125000
     31 H091       -21.8870    15.2060    -1.4320 ha         1 ZTE       0.123000
     32 H101       -23.1340    15.8420     0.6120 ha         1 ZTE       0.133000
     33 H161       -26.0330    12.6150     3.3740 h1         1 ZTE       0.052700
     34 H172       -26.9910    10.6020     1.2450 hc         1 ZTE       0.072700
     35 H171       -25.4480    11.2890     1.2130 hc         1 ZTE       0.072700
     36 H241       -26.8640    15.3340    -1.5160 ha         1 ZTE       0.156000
     37 H271       -26.7940    13.0450    -9.2310 h5         1 ZTE       0.047100
     38 H012       -30.5340    14.0320    -6.9920 hn         1 ZTE       0.504500
     39 H011       -30.0650    14.5140    -5.4010 hn         1 ZTE       0.504500
     40 H141       -25.6840    14.6690     2.8750 hn         1 ZTE       0.345500
     41 H191       -25.0160     8.0290     2.7890 hn         1 ZTE       0.318500
     42 H192       -25.5510     8.6680     1.2470 hn         1 ZTE       0.318500
     43 H1         -27.8590    11.3070     4.0660 hn         1 ZTE       0.413500
     44 H212       -28.3440    12.8350     3.8950 hn         1 ZTE       0.413500
@<TRIPOS>BOND
     1     1     2 ar  
     2     1    17 1   
     3     1    22 ar  
     4     2     3 ar  
     5     2    28 1   
     6     3     4 1   
     7     3    21 ar  
     8     4     5 2   
     9     4    29 1   
    10     5     6 1   
    11     5    28 1   
    12     6     7 ar  
    13     6    15 ar  
    14     7     8 ar  
    15     7    30 1   
    16     8     9 ar  
    17     8    31 1   
    18     9    10 ar  
    19     9    32 1   
    20    10    15 ar  
    21    10    27 1   
    22    11    12 1   
    23    11    18 1   
    24    11    25 2   
    25    12    13 1   
    26    12    20 1   
    27    12    33 1   
    28    13    14 1   
    29    13    34 1   
    30    13    35 1   
    31    14    19 1   
    32    14    24 2   
    33    15    36 1   
    34    16    21 ar  
    35    16    22 ar  
    36    16    37 1   
    37    17    38 1   
    38    17    39 1   
    39    18    27 1   
    40    18    40 1   
    41    19    41 1   
    42    19    42 1   
    43    20    43 1   
    44    20    44 1   
    45    23    27 2   
    46    26    27 2   
@<TRIPOS>SUBSTRUCTURE
     1 ZTE         1 TEMP              0 ****  ****    0 ROOT
