@<TRIPOS>MOLECULE
ZTE
   44    46     1     0     0
SMALL
abcg2


@<TRIPOS>ATOM
      1 C02        -28.4570    14.4050    -6.6600 ca         1 ZTE       0.439900
      2 C03        -27.4890    14.3540    -5.6350 ca         1 ZTE      -0.354000
      3 C04        -26.5070    13.3670    -5.7070 ca         1 ZTE       0.165800
      4 C05        -25.6070    13.4290    -4.6020 cc         1 ZTE      -0.287800
      5 C06        -25.9140    14.4300    -3.7350 cd         1 ZTE       0.014400
      6 C07        -25.2250    14.7650    -2.4880 ca         1 ZTE      -0.049800
      7 C08        -23.8500    14.5640    -2.3710 ca         1 ZTE      -0.038000
      8 C09        -23.1900    14.8380    -1.1830 ca         1 ZTE      -0.133000
      9 C10        -23.8890    15.3180    -0.0870 ca         1 ZTE      -0.019000
     10 C11        -25.2560    15.5200    -0.2130 ca         1 ZTE      -0.296500
     11 C15        -27.0790    13.5680     1.6110 c          1 ZTE       0.617100
     12 C16        -26.8650    12.3020     2.4300 c3         1 ZTE       0.108500
     13 C17        -25.6680    11.5840     1.8040 c3         1 ZTE      -0.168400
     14 C18        -25.2190    10.3750     2.6100 c          1 ZTE       0.607100
     15 C24        -25.9320    15.2580    -1.3920 ca         1 ZTE       0.015000
     16 C27        -27.4040    12.6070    -7.6090 ca         1 ZTE       0.170900
     17 N01        -29.4410    15.3070    -6.6930 nv         1 ZTE      -1.078900
     18 N14        -26.3720    14.6540     2.0800 ns         1 ZTE      -0.589300
     19 N19        -24.5650     9.4450     1.9010 nt         1 ZTE      -0.604000
     20 N21        -28.0470    11.4740     2.3470 n8         1 ZTE      -0.984200
     21 N26        -26.4570    12.4700    -6.7080 nb         1 ZTE      -0.193000
     22 N28        -28.3840    13.5070    -7.6420 nb         1 ZTE      -0.281000
     23 O13        -25.3090    16.8900     2.0360 o          1 ZTE      -0.520500
     24 O20        -25.4190    10.2830     3.8120 o          1 ZTE      -0.614100
     25 O22        -27.7580    13.6240     0.6160 o          1 ZTE      -0.515100
     26 O23        -27.4570    16.5600     0.7770 o          1 ZTE      -0.520500
     27 S12        -26.1650    16.0700     1.2020 sy         1 ZTE       1.179300
     28 S25        -27.3010    15.3470    -4.2390 ss         1 ZTE       0.110400
     29 H051       -24.7930    12.7320    -4.4590 ha         1 ZTE       0.218000
     30 H081       -23.2850    14.2030    -3.2200 ha         1 ZTE       0.125000
     31 H091       -22.1220    14.6820    -1.1130 ha         1 ZTE       0.123000
     32 H101       -23.3710    15.5280     0.8390 ha         1 ZTE       0.133000
     33 H161       -26.5970    12.5920     3.4560 h1         1 ZTE       0.052700
     34 H172       -25.9140    11.2930     0.7810 hc         1 ZTE       0.072700
     35 H171       -24.8110    12.2620     1.7410 hc         1 ZTE       0.072700
     36 H241       -27.0010    15.4090    -1.4530 ha         1 ZTE       0.156000
     37 H271       -27.3950    11.9010    -8.4320 h5         1 ZTE       0.047100
     38 H012       -30.1070    15.2840    -7.4460 hn         1 ZTE       0.504500
     39 H011       -29.5700    16.0000    -5.9770 hn         1 ZTE       0.504500
     40 H141       -25.7740    14.5580     2.8940 hn         1 ZTE       0.345500
     41 H191       -24.1790     8.6340     2.3570 hn         1 ZTE       0.318500
     42 H192       -24.4160     9.5340     0.9100 hn         1 ZTE       0.318500
     43 H1         -27.8990    10.6330     2.8900 hn         1 ZTE       0.413500
     44 H212       -28.8310    11.9430     2.7850 hn         1 ZTE       0.413500
@<TRIPOS>BOND
     1     1     2 ar  
     2     1    17 1   
     3     1    22 ar  
     4     2     3 ar  
     5     2    28 1   
     6     3     4 1   
     7     3    21 ar  
     8     4     5 2   
     9     4    29 1   
    10     5     6 1   
    11     5    28 1   
    12     6     7 ar  
    13     6    15 ar  
    14     7     8 ar  
    15     7    30 1   
    16     8     9 ar  
    17     8    31 1   
    18     9    10 ar  
    19     9    32 1   
    20    10    15 ar  
    21    10    27 1   
    22    11    12 1   
    23    11    18 1   
    24    11    25 2   
    25    12    13 1   
    26    12    20 1   
    27    12    33 1   
    28    13    14 1   
    29    13    34 1   
    30    13    35 1   
    31    14    19 1   
    32    14    24 2   
    33    15    36 1   
    34    16    21 ar  
    35    16    22 ar  
    36    16    37 1   
    37    17    38 1   
    38    17    39 1   
    39    18    27 1   
    40    18    40 1   
    41    19    41 1   
    42    19    42 1   
    43    20    43 1   
    44    20    44 1   
    45    23    27 2   
    46    26    27 2   
@<TRIPOS>SUBSTRUCTURE
     1 ZTE         1 TEMP              0 ****  ****    0 ROOT
