@<TRIPOS>MOLECULE
ZTI
   19    20     1     0     0
SMALL
abcg2


@<TRIPOS>ATOM
      1 C1           9.7760    -3.8670    -0.8410 ca         1 ZTI       0.333900
      2 N1          10.6450    -4.6180    -1.5200 nb         1 ZTI      -0.633000
      3 S1          14.9770    -6.4610    -2.9270 ss         1 ZTI      -0.115400
      4 C2          10.1230    -3.0840     0.2520 ca         1 ZTI      -0.162000
      5 N2          12.4020    -6.4390    -2.7450 nc         1 ZTI      -0.684000
      6 C3          11.4510    -3.0930     0.6640 ca         1 ZTI      -0.076000
      7 N3          13.2160    -8.1260    -4.1760 nv         1 ZTI      -1.038900
      8 C4          12.3630    -3.8720    -0.0280 ca         1 ZTI      -0.150000
      9 C5          11.9280    -4.6230    -1.1280 ca         1 ZTI       0.318000
     10 C6          12.8740    -5.4490    -1.9010 cc         1 ZTI       0.279000
     11 C7          14.2310    -5.3130    -1.8710 cd         1 ZTI      -0.266000
     12 C8          13.3770    -7.0590    -3.3450 cd         1 ZTI       0.693300
     13 H1           8.7480    -3.8910    -1.1900 h4         1 ZTI       0.021100
     14 H2           9.3750    -2.4940     0.7640 ha         1 ZTI       0.124000
     15 H31         11.7700    -2.5080     1.5170 ha         1 ZTI       0.119000
     16 H33         12.2860    -8.2470    -4.5500 hn         1 ZTI       0.478000
     17 H32         13.9610    -8.3370    -4.8220 hn         1 ZTI       0.478000
     18 H4          13.3960    -3.9110     0.2870 ha         1 ZTI       0.122000
     19 H7          14.8310    -4.6070    -1.3220 h4         1 ZTI       0.159000
@<TRIPOS>BOND
     1     1     2 ar  
     2     1     4 ar  
     3     1    13 1   
     4     2     9 ar  
     5     3    11 1   
     6     3    12 1   
     7     4     6 ar  
     8     4    14 1   
     9     5    10 1   
    10     5    12 2   
    11     6     8 ar  
    12     6    15 1   
    13     7    12 1   
    14     7    16 1   
    15     7    17 1   
    16     8     9 ar  
    17     8    18 1   
    18     9    10 1   
    19    10    11 2   
    20    11    19 1   
@<TRIPOS>SUBSTRUCTURE
     1 ZTI         1 TEMP              0 ****  ****    0 ROOT
