@<TRIPOS>MOLECULE
ZTI
   19    20     1     0     0
SMALL
No Charge or Current Charge


@<TRIPOS>ATOM
      1 C1           9.8210    -3.5560    -0.9720 ca         1 ZTI       0.333900
      2 N1          10.6570    -4.3120    -1.7200 nb         1 ZTI      -0.633000
      3 S1          14.9870    -6.1530    -3.2090 ss         1 ZTI      -0.115400
      4 C2          10.1640    -3.0700     0.3000 ca         1 ZTI      -0.162000
      5 N2          12.4570    -6.6340    -2.6340 nc         1 ZTI      -0.684000
      6 C3          11.4250    -3.3770     0.8310 ca         1 ZTI      -0.076000
      7 N3          13.3500    -8.2470    -3.9290 nv         1 ZTI      -1.038900
      8 C4          12.2950    -4.1630     0.0580 ca         1 ZTI      -0.150000
      9 C5          11.8860    -4.6170    -1.2160 ca         1 ZTI       0.318000
     10 C6          12.8080    -5.4440    -2.0300 cc         1 ZTI       0.279000
     11 C7          14.1030    -5.0090    -2.2100 cd         1 ZTI      -0.266000
     12 C8          13.5010    -7.0930    -3.2680 cd         1 ZTI       0.693300
     13 H1           8.8480    -3.3330    -1.4070 h4         1 ZTI       0.021100
     14 H2           9.4560    -2.4660     0.8610 ha         1 ZTI       0.124000
     15 H31         11.7210    -3.0180     1.8150 ha         1 ZTI       0.119000
     16 H33         12.3900    -8.5270    -4.0870 hn         1 ZTI       0.478000
     17 H32         14.0080    -8.4450    -4.6740 hn         1 ZTI       0.478000
     18 H4          13.2780    -4.4240     0.4410 ha         1 ZTI       0.122000
     19 H7          14.5730    -4.1100    -1.8310 h4         1 ZTI       0.159000
@<TRIPOS>BOND
     1     1     2 ar  
     2     1     4 ar  
     3     1    13 1   
     4     2     9 ar  
     5     3    11 1   
     6     3    12 1   
     7     4     6 ar  
     8     4    14 1   
     9     5    10 1   
    10     5    12 2   
    11     6     8 ar  
    12     6    15 1   
    13     7    12 1   
    14     7    16 1   
    15     7    17 1   
    16     8     9 ar  
    17     8    18 1   
    18     9    10 1   
    19    10    11 2   
    20    11    19 1   
@<TRIPOS>SUBSTRUCTURE
     1 ZTI         1 TEMP              0 ****  ****    0 ROOT
