@<TRIPOS>MOLECULE
ZTL
   61    65     1     0     0
SMALL
No Charge or Current Charge


@<TRIPOS>ATOM
      1 C01        -44.5090    12.3830    -6.9970 c6         1 ZTL      -0.060700
      2 C02        -45.5550    11.3480    -6.4950 c6         1 ZTL      -0.063400
      3 C03        -46.8790    12.0550    -6.0330 c6         1 ZTL      -0.000700
      4 C04        -46.4940    13.0640    -4.8940 c6         1 ZTL      -0.063900
      5 C05        -45.4620    14.1170    -5.4020 c6         1 ZTL      -0.049200
      6 C06        -44.1710    13.3640    -5.8440 c6         1 ZTL      -0.070400
      7 C07        -45.1040    13.1610    -8.1990 c6         1 ZTL      -0.070400
      8 C08        -47.4280    12.8680    -7.2580 c6         1 ZTL      -0.063900
      9 C09        -46.1300    14.9300    -6.5680 c6         1 ZTL      -0.134700
     10 C10        -46.3870    13.9220    -7.7460 c6         1 ZTL      -0.049200
     11 C11        -47.9650    11.0630    -5.5210 ca         1 ZTL      -0.065300
     12 C12        -49.2100    11.5650    -5.0720 ca         1 ZTL      -0.109500
     13 C13        -50.2150    10.7020    -4.6030 ca         1 ZTL      -0.110000
     14 C14        -49.9960     9.3180    -4.5730 ca         1 ZTL      -0.112000
     15 C15        -48.7700     8.7990    -5.0130 ca         1 ZTL      -0.110000
     16 C16        -47.7630     9.6600    -5.4830 ca         1 ZTL      -0.109500
     17 C17        -45.3760    16.2290    -6.9610 c          1 ZTL       0.602100
     18 C20        -43.2400    17.2050    -7.9050 c6         1 ZTL       0.107700
     19 C21        -42.4760    17.7690    -6.6790 c6         1 ZTL      -0.086900
     20 C22        -41.4990    18.9000    -7.0890 c6         1 ZTL      -0.068900
     21 C23        -40.4870    18.4170    -8.1690 c6         1 ZTL      -0.066700
     22 C24        -41.2510    17.8290    -9.3890 c6         1 ZTL      -0.068900
     23 C25        -42.2250    16.7040    -8.9620 c6         1 ZTL      -0.086900
     24 C26        -39.5090    19.5420    -8.6210 c3         1 ZTL       0.155800
     25 N19        -44.1190    16.1050    -7.4990 ns         1 ZTL      -0.506900
     26 N27        -38.6410    20.0540    -7.5420 n8         1 ZTL      -1.003200
     27 O18        -45.8930    17.3270    -6.8090 o          1 ZTL      -0.618100
     28 H1         -43.5970    11.8570    -7.3130 hc         1 ZTL       0.050700
     29 H2         -45.7680    10.6310    -7.3010 hc         1 ZTL       0.043200
     30 H3         -45.1220    10.7700    -5.6670 hc         1 ZTL       0.043200
     31 H4         -46.0800    12.5180    -4.0350 hc         1 ZTL       0.045450
     32 H5         -47.3840    13.5840    -4.5160 hc         1 ZTL       0.045450
     33 H6         -45.2180    14.8010    -4.5770 hc         1 ZTL       0.058200
     34 H7         -43.7610    12.8040    -4.9920 hc         1 ZTL       0.046200
     35 H8         -43.3760    14.0580    -6.1400 hc         1 ZTL       0.046200
     36 H9         -44.3600    13.8350    -8.6390 hc         1 ZTL       0.046200
     37 H10        -45.3580    12.4570    -9.0040 hc         1 ZTL       0.046200
     38 H11        -48.3650    13.3800    -7.0000 hc         1 ZTL       0.045450
     39 H12        -47.6800    12.1820    -8.0790 hc         1 ZTL       0.045450
     40 H13        -47.1050    15.2870    -6.2110 hc         1 ZTL       0.066700
     41 H14        -46.8070    14.4660    -8.6040 hc         1 ZTL       0.058200
     42 H15        -49.4100    12.6330    -5.0830 ha         1 ZTL       0.110500
     43 H16        -51.1650    11.1090    -4.2630 ha         1 ZTL       0.111000
     44 H17        -50.7740     8.6490    -4.2100 ha         1 ZTL       0.112000
     45 H18        -48.5970     7.7250    -4.9910 ha         1 ZTL       0.111000
     46 H19        -46.8310     9.2110    -5.8120 ha         1 ZTL       0.110500
     47 H20        -43.8530    18.0040    -8.3490 h1         1 ZTL       0.081700
     48 H22        -41.9190    16.9620    -6.1820 hc         1 ZTL       0.044950
     49 H23        -40.9650    19.2520    -6.1950 hc         1 ZTL       0.042450
     50 H24        -42.0700    19.7580    -7.4690 hc         1 ZTL       0.042450
     51 H25        -39.8640    17.6200    -7.7380 hc         1 ZTL       0.061700
     52 H26        -40.5360    17.4340   -10.1230 hc         1 ZTL       0.042450
     53 H27        -41.8110    18.6260    -9.8990 hc         1 ZTL       0.042450
     54 H28        -42.7640    16.3310    -9.8450 hc         1 ZTL       0.044950
     55 H29        -41.6540    15.8540    -8.5630 hc         1 ZTL       0.044950
     56 H30        -40.0900    20.3810    -9.0310 h1         1 ZTL       0.027700
     57 H31        -38.8630    19.1530    -9.4200 h1         1 ZTL       0.027700
     58 H32        -43.7700    15.1610    -7.5910 hn         1 ZTL       0.308500
     59 H33        -38.0830    20.8370    -7.9040 hn         1 ZTL       0.393500
     60 H34        -39.2310    20.4900    -6.8230 hn         1 ZTL       0.393500
     61 H21        -43.1910    18.1540    -5.9390 hc         1 ZTL       0.044950
@<TRIPOS>BOND
     1     1     2 1   
     2     1     6 1   
     3     1     7 1   
     4     1    28 1   
     5     2     3 1   
     6     2    29 1   
     7     2    30 1   
     8     3     4 1   
     9     3     8 1   
    10     3    11 1   
    11     4     5 1   
    12     4    31 1   
    13     4    32 1   
    14     5     6 1   
    15     5     9 1   
    16     5    33 1   
    17     6    34 1   
    18     6    35 1   
    19     7    10 1   
    20     7    36 1   
    21     7    37 1   
    22     8    10 1   
    23     8    38 1   
    24     8    39 1   
    25     9    10 1   
    26     9    17 1   
    27     9    40 1   
    28    10    41 1   
    29    11    12 ar  
    30    11    16 ar  
    31    12    13 ar  
    32    12    42 1   
    33    13    14 ar  
    34    13    43 1   
    35    14    15 ar  
    36    14    44 1   
    37    15    16 ar  
    38    15    45 1   
    39    16    46 1   
    40    17    25 1   
    41    17    27 2   
    42    18    19 1   
    43    18    23 1   
    44    18    25 1   
    45    18    47 1   
    46    19    20 1   
    47    19    48 1   
    48    19    61 1   
    49    20    21 1   
    50    20    49 1   
    51    20    50 1   
    52    21    22 1   
    53    21    24 1   
    54    21    51 1   
    55    22    23 1   
    56    22    52 1   
    57    22    53 1   
    58    23    54 1   
    59    23    55 1   
    60    24    26 1   
    61    24    56 1   
    62    24    57 1   
    63    25    58 1   
    64    26    59 1   
    65    26    60 1   
@<TRIPOS>SUBSTRUCTURE
     1 ZTL         1 TEMP              0 ****  ****    0 ROOT
