@<TRIPOS>MOLECULE
ZTL
   61    65     1     0     0
SMALL
abcg2


@<TRIPOS>ATOM
      1 C01        -45.3640    11.9520    -8.2230 c6         1 ZTL      -0.060700
      2 C02        -46.2970    11.1080    -7.3450 c6         1 ZTL      -0.063400
      3 C03        -46.9580    11.9730    -6.2550 c6         1 ZTL      -0.000700
      4 C04        -45.8310    12.6140    -5.4110 c6         1 ZTL      -0.063900
      5 C05        -44.8970    13.4610    -6.2860 c6         1 ZTL      -0.049200
      6 C06        -44.2580    12.5720    -7.3600 c6         1 ZTL      -0.070400
      7 C07        -46.1620    13.0710    -8.9020 c6         1 ZTL      -0.070400
      8 C08        -47.7380    13.1100    -6.9560 c6         1 ZTL      -0.063900
      9 C09        -45.7190    14.5920    -6.9400 c6         1 ZTL      -0.134700
     10 C10        -46.8060    13.9590    -7.8300 c6         1 ZTL      -0.049200
     11 C11        -47.8920    11.1780    -5.3510 ca         1 ZTL      -0.065300
     12 C12        -48.5610    11.8230    -4.3030 ca         1 ZTL      -0.109500
     13 C13        -49.4170    11.1330    -3.4550 ca         1 ZTL      -0.110000
     14 C14        -49.6310     9.7690    -3.6320 ca         1 ZTL      -0.112000
     15 C15        -48.9780     9.1120    -4.6670 ca         1 ZTL      -0.110000
     16 C16        -48.1200     9.8100    -5.5150 ca         1 ZTL      -0.109500
     17 C17        -44.9280    15.6660    -7.6930 c          1 ZTL       0.602100
     18 C20        -42.8090    16.9540    -7.7780 c6         1 ZTL       0.107700
     19 C21        -42.9130    18.2040    -6.8990 c6         1 ZTL      -0.086900
     20 C22        -41.9670    19.3060    -7.3730 c6         1 ZTL      -0.068900
     21 C23        -40.5150    18.8210    -7.4440 c6         1 ZTL      -0.066700
     22 C24        -40.4240    17.5730    -8.3280 c6         1 ZTL      -0.068900
     23 C25        -41.3650    16.4630    -7.8610 c6         1 ZTL      -0.086900
     24 C26        -39.5640    19.9060    -7.9440 c3         1 ZTL       0.155800
     25 N19        -43.6680    15.8880    -7.2780 ns         1 ZTL      -0.506900
     26 N27        -39.5200    21.0660    -7.0420 n8         1 ZTL      -1.003200
     27 O18        -45.4470    16.3240    -8.6000 o          1 ZTL      -0.618100
     28 H1         -44.9140    11.3070    -8.9840 hc         1 ZTL       0.050700
     29 H2         -47.0680    10.6490    -7.9710 hc         1 ZTL       0.043200
     30 H3         -45.7290    10.2970    -6.8820 hc         1 ZTL       0.043200
     31 H4         -45.2560    11.8240    -4.9190 hc         1 ZTL       0.045450
     32 H5         -46.2610    13.2370    -4.6250 hc         1 ZTL       0.045450
     33 H6         -44.1250    13.8720    -5.6300 hc         1 ZTL       0.058200
     34 H7         -43.6690    11.7860    -6.8790 hc         1 ZTL       0.046200
     35 H8         -43.5760    13.1520    -7.9860 hc         1 ZTL       0.046200
     36 H9         -45.5070    13.6640    -9.5450 hc         1 ZTL       0.046200
     37 H10        -46.9420    12.6430    -9.5390 hc         1 ZTL       0.046200
     38 H11        -48.2200    13.7450    -6.2100 hc         1 ZTL       0.045450
     39 H12        -48.5300    12.6760    -7.5720 hc         1 ZTL       0.045450
     40 H13        -46.2220    15.1490    -6.1390 hc         1 ZTL       0.066700
     41 H14        -47.3830    14.7530    -8.3010 hc         1 ZTL       0.058200
     42 H15        -48.4120    12.8830    -4.1430 ha         1 ZTL       0.110500
     43 H16        -49.9190    11.6620    -2.6530 ha         1 ZTL       0.111000
     44 H17        -50.2970     9.2270    -2.9720 ha         1 ZTL       0.112000
     45 H18        -49.1330     8.0510    -4.8210 ha         1 ZTL       0.111000
     46 H19        -47.6280     9.2690    -6.3100 ha         1 ZTL       0.110500
     47 H20        -43.1640    17.1980    -8.7810 h1         1 ZTL       0.081700
     48 H22        -42.6660    17.9240    -5.8700 hc         1 ZTL       0.044950
     49 H23        -42.0510    20.1650    -6.7030 hc         1 ZTL       0.042450
     50 H24        -42.2730    19.6490    -8.3690 hc         1 ZTL       0.042450
     51 H25        -40.2000    18.5460    -6.4300 hc         1 ZTL       0.061700
     52 H26        -39.3950    17.2020    -8.3420 hc         1 ZTL       0.042450
     53 H27        -40.6740    17.8480    -9.3590 hc         1 ZTL       0.042450
     54 H28        -41.3090    15.6040    -8.5340 hc         1 ZTL       0.044950
     55 H29        -41.0550    16.1150    -6.8680 hc         1 ZTL       0.044950
     56 H30        -39.8520    20.1790    -8.9700 h1         1 ZTL       0.027700
     57 H31        -38.5540    19.4910    -7.9980 h1         1 ZTL       0.027700
     58 H32        -43.3130    15.3470    -6.5060 hn         1 ZTL       0.308500
     59 H33        -38.7910    21.7040    -7.3460 hn         1 ZTL       0.393500
     60 H34        -40.3870    21.5890    -7.1090 hn         1 ZTL       0.393500
     61 H21        -43.9470    18.5590    -6.8970 hc         1 ZTL       0.044950
@<TRIPOS>BOND
     1     1     2 1   
     2     1     6 1   
     3     1     7 1   
     4     1    28 1   
     5     2     3 1   
     6     2    29 1   
     7     2    30 1   
     8     3     4 1   
     9     3     8 1   
    10     3    11 1   
    11     4     5 1   
    12     4    31 1   
    13     4    32 1   
    14     5     6 1   
    15     5     9 1   
    16     5    33 1   
    17     6    34 1   
    18     6    35 1   
    19     7    10 1   
    20     7    36 1   
    21     7    37 1   
    22     8    10 1   
    23     8    38 1   
    24     8    39 1   
    25     9    10 1   
    26     9    17 1   
    27     9    40 1   
    28    10    41 1   
    29    11    12 ar  
    30    11    16 ar  
    31    12    13 ar  
    32    12    42 1   
    33    13    14 ar  
    34    13    43 1   
    35    14    15 ar  
    36    14    44 1   
    37    15    16 ar  
    38    15    45 1   
    39    16    46 1   
    40    17    25 1   
    41    17    27 2   
    42    18    19 1   
    43    18    23 1   
    44    18    25 1   
    45    18    47 1   
    46    19    20 1   
    47    19    48 1   
    48    19    61 1   
    49    20    21 1   
    50    20    49 1   
    51    20    50 1   
    52    21    22 1   
    53    21    24 1   
    54    21    51 1   
    55    22    23 1   
    56    22    52 1   
    57    22    53 1   
    58    23    54 1   
    59    23    55 1   
    60    24    26 1   
    61    24    56 1   
    62    24    57 1   
    63    25    58 1   
    64    26    59 1   
    65    26    60 1   
@<TRIPOS>SUBSTRUCTURE
     1 ZTL         1 TEMP              0 ****  ****    0 ROOT
