@<TRIPOS>MOLECULE
ZTN
   13    13     1     0     0
SMALL
No Charge or Current Charge


@<TRIPOS>ATOM
      1 C            0.1270     2.0660    -0.0500 ca         1 ZTN      -0.058000
      2 O            2.3270    -0.8870    -0.1550 oh         1 ZTN      -0.511100
      3 F1          -0.1940    -2.0940    -0.0510 f          1 ZTN      -0.150000
      4 C3          -0.0840    -0.7420    -0.0510 ca         1 ZTN       0.092000
      5 C2           1.1870    -0.1310    -0.1040 ca         1 ZTN       0.127100
      6 C1           1.2880     1.2730    -0.1030 ca         1 ZTN      -0.201000
      7 C4          -1.2430     0.0560     0.0020 ca         1 ZTN       0.170000
      8 F           -2.4660    -0.5200     0.0530 f          1 ZTN      -0.158000
      9 C5          -1.1380     1.4570     0.0020 ca         1 ZTN      -0.166000
     10 H1           0.2090     3.1520    -0.0500 ha         1 ZTN       0.122000
     11 H2           3.1010    -0.2860    -0.1870 ho         1 ZTN       0.471000
     12 H3           2.2610     1.7560    -0.1430 ha         1 ZTN       0.122000
     13 H4          -2.0380     2.0660     0.0430 ha         1 ZTN       0.139000
@<TRIPOS>BOND
     1     1     6 ar  
     2     1     9 ar  
     3     1    10 1   
     4     2     5 1   
     5     2    11 1   
     6     3     4 1   
     7     4     5 ar  
     8     4     7 ar  
     9     5     6 ar  
    10     6    12 1   
    11     7     8 1   
    12     7     9 ar  
    13     9    13 1   
@<TRIPOS>SUBSTRUCTURE
     1 ZTN         1 TEMP              0 ****  ****    0 ROOT
