@<TRIPOS>MOLECULE
ZTN
   13    13     1     0     0
SMALL
bcc


@<TRIPOS>ATOM
      1 C            0.1120     2.0540    -0.0500 ca         1 ZTN      -0.076000
      2 O            2.2580    -0.9130    -0.1530 oh         1 ZTN      -0.472100
      3 F1          -0.1580    -2.0290    -0.0530 f          1 ZTN      -0.114900
      4 C3          -0.0610    -0.6940    -0.0520 ca         1 ZTN       0.056900
      5 C2           1.1950    -0.0970    -0.1040 ca         1 ZTN       0.127100
      6 C1           1.2700     1.2930    -0.1030 ca         1 ZTN      -0.219000
      7 C4          -1.2040     0.0790     0.0000 ca         1 ZTN       0.134900
      8 F           -2.3860    -0.5430     0.0500 f          1 ZTN      -0.122900
      9 C5          -1.1400     1.4590     0.0030 ca         1 ZTN      -0.184000
     10 H1           0.1880     3.1330    -0.0490 ha         1 ZTN       0.140000
     11 H2           3.0730    -0.3990    -0.1830 ho         1 ZTN       0.432000
     12 H3           2.2370     1.7780    -0.1440 ha         1 ZTN       0.140000
     13 H4          -2.0470     2.0460     0.0450 ha         1 ZTN       0.157000
@<TRIPOS>BOND
     1     1     6 ar  
     2     1     9 ar  
     3     1    10 1   
     4     2     5 1   
     5     2    11 1   
     6     3     4 1   
     7     4     5 ar  
     8     4     7 ar  
     9     5     6 ar  
    10     6    12 1   
    11     7     8 1   
    12     7     9 ar  
    13     9    13 1   
@<TRIPOS>SUBSTRUCTURE
     1 ZTN         1 TEMP              0 ****  ****    0 ROOT
