@<TRIPOS>MOLECULE
ZTN
   13    13     1     0     0
SMALL
abcg2


@<TRIPOS>ATOM
      1 C            0.1120     2.0540    -0.0500 ca         1 ZTN      -0.058000
      2 O            2.2580    -0.9130    -0.1530 oh         1 ZTN      -0.511100
      3 F1          -0.1580    -2.0290    -0.0530 f          1 ZTN      -0.150000
      4 C3          -0.0610    -0.6940    -0.0520 ca         1 ZTN       0.092000
      5 C2           1.1950    -0.0970    -0.1040 ca         1 ZTN       0.127100
      6 C1           1.2700     1.2930    -0.1030 ca         1 ZTN      -0.201000
      7 C4          -1.2040     0.0790     0.0000 ca         1 ZTN       0.170000
      8 F           -2.3860    -0.5430     0.0500 f          1 ZTN      -0.158000
      9 C5          -1.1400     1.4590     0.0030 ca         1 ZTN      -0.166000
     10 H1           0.1880     3.1330    -0.0490 ha         1 ZTN       0.122000
     11 H2           3.0730    -0.3990    -0.1830 ho         1 ZTN       0.471000
     12 H3           2.2370     1.7780    -0.1440 ha         1 ZTN       0.122000
     13 H4          -2.0470     2.0460     0.0450 ha         1 ZTN       0.139000
@<TRIPOS>BOND
     1     1     6 ar  
     2     1     9 ar  
     3     1    10 1   
     4     2     5 1   
     5     2    11 1   
     6     3     4 1   
     7     4     5 ar  
     8     4     7 ar  
     9     5     6 ar  
    10     6    12 1   
    11     7     8 1   
    12     7     9 ar  
    13     9    13 1   
@<TRIPOS>SUBSTRUCTURE
     1 ZTN         1 TEMP              0 ****  ****    0 ROOT
