@<TRIPOS>MOLECULE
ZTO
   48    51     1     0     0
SMALL
abcg2


@<TRIPOS>ATOM
      1 O1          21.1230    -9.2800    40.0370 o          1 ZTO      -0.527000
      2 C8          21.3010    -9.7080    38.9170 c          1 ZTO       0.563000
      3 N1          20.3740   -10.3260    38.1370 ns         1 ZTO      -0.146000
      4 C4          20.8970   -10.7170    36.9090 ca         1 ZTO      -0.048000
      5 C5          20.2710   -11.3870    35.8760 ca         1 ZTO      -0.121000
      6 C6          21.0250   -11.6950    34.7450 ca         1 ZTO      -0.116000
      7 C1          22.3570   -11.3370    34.6950 ca         1 ZTO       0.146000
      8 F1          23.0760   -11.6530    33.6010 f          1 ZTO      -0.178000
      9 C2          22.9930   -10.6670    35.7300 ca         1 ZTO      -0.083000
     10 C3          22.2390   -10.3460    36.8410 ca         1 ZTO      -0.115300
     11 C7          22.5940    -9.6200    38.1040 c5         1 ZTO      -0.098400
     12 C9          22.9710    -8.1380    37.9100 c3         1 ZTO      -0.014100
     13 C10         24.2280    -7.9750    37.1040 ca         1 ZTO      -0.061300
     14 C15         24.1430    -7.6020    35.7670 ca         1 ZTO      -0.122000
     15 C11         25.4690    -8.2450    37.6710 ca         1 ZTO      -0.134000
     16 C12         26.6150    -8.1430    36.8970 ca         1 ZTO      -0.083000
     17 C13         26.5330    -7.7880    35.5600 ca         1 ZTO      -0.168000
     18 C14         25.2930    -7.5170    34.9800 ca         1 ZTO      -0.018000
     19 N2          25.2850    -7.1550    33.6290 ns         1 ZTO      -0.146000
     20 C16         24.2500    -7.2100    32.7480 c          1 ZTO       0.627700
     21 O2          23.1400    -7.6190    33.0460 o          1 ZTO      -0.581100
     22 C17         24.5560    -6.7530    31.3640 ca         1 ZTO      -0.198600
     23 C18         23.6910    -7.1520    30.3400 ca         1 ZTO      -0.030000
     24 C19         23.8990    -6.7570    29.0370 ca         1 ZTO      -0.185500
     25 C20         24.9790    -5.9280    28.7160 ca         1 ZTO       0.169100
     26 O3          25.1070    -5.5950    27.4250 os         1 ZTO      -0.336100
     27 C23         26.1350    -4.6980    27.0480 c3         1 ZTO       0.147900
     28 C21         25.8390    -5.5060    29.7280 ca         1 ZTO      -0.185500
     29 C22         25.6200    -5.9200    31.0340 ca         1 ZTO      -0.030000
     30 H1          19.4180   -10.4760    38.4240 hn         1 ZTO       0.173000
     31 H2          19.2290   -11.6720    35.9320 ha         1 ZTO       0.124000
     32 H3          20.5710   -12.2180    33.9130 ha         1 ZTO       0.132000
     33 H4          24.0430   -10.4160    35.6600 ha         1 ZTO       0.143000
     34 H5          23.3970   -10.1220    38.6520 hc         1 ZTO       0.095700
     35 H6          23.0930    -7.6890    38.8980 hc         1 ZTO       0.065200
     36 H7          22.1440    -7.6190    37.4200 hc         1 ZTO       0.065200
     37 H8          23.1730    -7.3910    35.3480 ha         1 ZTO       0.146000
     38 H9          25.5410    -8.5350    38.7130 ha         1 ZTO       0.116000
     39 H10         27.5850    -8.3450    37.3330 ha         1 ZTO       0.114000
     40 H11         27.4350    -7.7220    34.9630 ha         1 ZTO       0.110000
     41 H12         26.1970    -6.9570    33.2460 hn         1 ZTO       0.151000
     42 H13         22.8480    -7.7900    30.5690 ha         1 ZTO       0.124000
     43 H14         23.2260    -7.0820    28.2540 ha         1 ZTO       0.127500
     44 H15         26.0160    -4.5250    25.9820 h1         1 ZTO       0.044367
     45 H16         26.0530    -3.7430    27.5720 h1         1 ZTO       0.044367
     46 H17         27.1270    -5.1180    27.2290 h1         1 ZTO       0.044367
     47 H18         26.6720    -4.8480    29.5240 ha         1 ZTO       0.127500
     48 H19         26.2990    -5.5450    31.7910 ha         1 ZTO       0.124000
@<TRIPOS>BOND
     1     1     2 2   
     2     2     3 1   
     3     2    11 1   
     4     3     4 1   
     5     3    30 1   
     6     4     5 ar  
     7     4    10 ar  
     8     5     6 ar  
     9     5    31 1   
    10     6     7 ar  
    11     6    32 1   
    12     7     8 1   
    13     7     9 ar  
    14     9    10 ar  
    15     9    33 1   
    16    10    11 1   
    17    11    12 1   
    18    11    34 1   
    19    12    13 1   
    20    12    35 1   
    21    12    36 1   
    22    13    14 ar  
    23    13    15 ar  
    24    14    18 ar  
    25    14    37 1   
    26    15    16 ar  
    27    15    38 1   
    28    16    17 ar  
    29    16    39 1   
    30    17    18 ar  
    31    17    40 1   
    32    18    19 1   
    33    19    20 1   
    34    19    41 1   
    35    20    21 2   
    36    20    22 1   
    37    22    23 ar  
    38    22    29 ar  
    39    23    24 ar  
    40    23    42 1   
    41    24    25 ar  
    42    24    43 1   
    43    25    26 1   
    44    25    28 ar  
    45    26    27 1   
    46    27    44 1   
    47    27    45 1   
    48    27    46 1   
    49    28    29 ar  
    50    28    47 1   
    51    29    48 1   
@<TRIPOS>SUBSTRUCTURE
     1 ZTO         1 TEMP              0 ****  ****    0 ROOT
