@<TRIPOS>MOLECULE
ZTO
   48    51     1     0     0
SMALL
No Charge or Current Charge


@<TRIPOS>ATOM
      1 O1          21.0820    -9.7560    40.2500 o          1 ZTO      -0.527000
      2 C8          21.3040    -9.9820    39.0670 c          1 ZTO       0.563000
      3 N1          20.4780   -10.6700    38.2020 ns         1 ZTO      -0.146000
      4 C4          21.0280   -11.0400    36.9810 ca         1 ZTO      -0.048000
      5 C5          20.4710   -11.7950    35.9420 ca         1 ZTO      -0.121000
      6 C6          21.2820   -12.0500    34.8150 ca         1 ZTO      -0.116000
      7 C1          22.6080   -11.5570    34.7670 ca         1 ZTO       0.146000
      8 F1          23.3750   -11.8130    33.6850 f          1 ZTO      -0.178000
      9 C2          23.1390   -10.8050    35.8350 ca         1 ZTO      -0.083000
     10 C3          22.3160   -10.5500    36.9430 ca         1 ZTO      -0.115300
     11 C7          22.6040    -9.7540    38.2180 c5         1 ZTO      -0.098400
     12 C9          22.8280    -8.2410    37.9660 c3         1 ZTO      -0.014100
     13 C10         24.0640    -7.9350    37.1280 ca         1 ZTO      -0.061300
     14 C15         23.9320    -7.5510    35.7780 ca         1 ZTO      -0.122000
     15 C11         25.3460    -8.0530    37.6930 ca         1 ZTO      -0.134000
     16 C12         26.4860    -7.7950    36.9160 ca         1 ZTO      -0.083000
     17 C13         26.3480    -7.4190    35.5710 ca         1 ZTO      -0.168000
     18 C14         25.0740    -7.2900    34.9880 ca         1 ZTO      -0.018000
     19 N2          25.0180    -6.9170    33.6160 ns         1 ZTO      -0.146000
     20 C16         23.9600    -6.6200    32.7630 c          1 ZTO       0.627700
     21 O2          22.7870    -6.6150    33.1220 o          1 ZTO      -0.581100
     22 C17         24.3380    -6.2880    31.3300 ca         1 ZTO      -0.198600
     23 C18         23.3210    -5.9700    30.4010 ca         1 ZTO      -0.030000
     24 C19         23.6400    -5.6590    29.0690 ca         1 ZTO      -0.185500
     25 C20         24.9710    -5.6590    28.6350 ca         1 ZTO       0.169100
     26 O3          25.2200    -5.3460    27.3140 os         1 ZTO      -0.336100
     27 C23         26.5520    -5.3180    26.7700 c3         1 ZTO       0.147900
     28 C21         25.9960    -5.9750    29.5500 ca         1 ZTO      -0.185500
     29 C22         25.6840    -6.2870    30.8850 ca         1 ZTO      -0.030000
     30 H1          19.5760   -11.0170    38.4990 hn         1 ZTO       0.173000
     31 H2          19.4530   -12.1740    36.0020 ha         1 ZTO       0.124000
     32 H3          20.8920   -12.6310    33.9830 ha         1 ZTO       0.132000
     33 H4          24.1590   -10.4320    35.7930 ha         1 ZTO       0.143000
     34 H5          23.4610   -10.1220    38.7920 hc         1 ZTO       0.095700
     35 H6          22.9140    -7.7220    38.9290 hc         1 ZTO       0.065200
     36 H7          21.9370    -7.8160    37.4860 hc         1 ZTO       0.065200
     37 H8          22.9340    -7.4810    35.3580 ha         1 ZTO       0.146000
     38 H9          25.4600    -8.3500    38.7330 ha         1 ZTO       0.116000
     39 H10         27.4760    -7.8910    37.3560 ha         1 ZTO       0.114000
     40 H11         27.2400    -7.2250    34.9790 ha         1 ZTO       0.110000
     41 H12         25.9270    -6.8610    33.1780 hn         1 ZTO       0.151000
     42 H13         22.2770    -5.9610    30.7080 ha         1 ZTO       0.124000
     43 H14         22.8460    -5.4150    28.3670 ha         1 ZTO       0.127500
     44 H15         26.5220    -5.0470    25.7070 h1         1 ZTO       0.044367
     45 H16         27.1720    -4.5790    27.2920 h1         1 ZTO       0.044367
     46 H17         27.0290    -6.3030    26.8560 h1         1 ZTO       0.044367
     47 H18         27.0380    -5.9850    29.2460 ha         1 ZTO       0.127500
     48 H19         26.5040    -6.5260    31.5570 ha         1 ZTO       0.124000
@<TRIPOS>BOND
     1     1     2 2   
     2     2     3 1   
     3     2    11 1   
     4     3     4 1   
     5     3    30 1   
     6     4     5 ar  
     7     4    10 ar  
     8     5     6 ar  
     9     5    31 1   
    10     6     7 ar  
    11     6    32 1   
    12     7     8 1   
    13     7     9 ar  
    14     9    10 ar  
    15     9    33 1   
    16    10    11 1   
    17    11    12 1   
    18    11    34 1   
    19    12    13 1   
    20    12    35 1   
    21    12    36 1   
    22    13    14 ar  
    23    13    15 ar  
    24    14    18 ar  
    25    14    37 1   
    26    15    16 ar  
    27    15    38 1   
    28    16    17 ar  
    29    16    39 1   
    30    17    18 ar  
    31    17    40 1   
    32    18    19 1   
    33    19    20 1   
    34    19    41 1   
    35    20    21 2   
    36    20    22 1   
    37    22    23 ar  
    38    22    29 ar  
    39    23    24 ar  
    40    23    42 1   
    41    24    25 ar  
    42    24    43 1   
    43    25    26 1   
    44    25    28 ar  
    45    26    27 1   
    46    27    44 1   
    47    27    45 1   
    48    27    46 1   
    49    28    29 ar  
    50    28    47 1   
    51    29    48 1   
@<TRIPOS>SUBSTRUCTURE
     1 ZTO         1 TEMP              0 ****  ****    0 ROOT
