@<TRIPOS>MOLECULE
ZTQ
   31    32     1     0     0
SMALL
abcg2


@<TRIPOS>ATOM
      1 C4         -14.1480    20.5330   -20.0940 ca         1 ZTQ      -0.179500
      2 C5         -13.0580    21.3900   -19.9940 ca         1 ZTQ      -0.062000
      3 C6         -12.0990    21.4900   -21.0050 cp         1 ZTQ      -0.129000
      4 C7         -10.9440    22.4050   -20.8830 cp         1 ZTQ       0.014000
      5 C8         -10.3450    22.6500   -19.6400 ca         1 ZTQ      -0.114500
      6 C10         -8.7420    24.1440   -20.6510 ca         1 ZTQ      -0.134000
      7 C13        -12.2750    20.6870   -22.1400 ca         1 ZTQ      -0.062000
      8 C15        -15.7870    18.0410   -19.1290 c          1 ZTQ       0.695000
      9 C1         -17.4310    17.8790   -21.0320 c3         1 ZTQ      -0.069100
     10 C2         -16.3250    18.7200   -20.4170 c3         1 ZTQ       0.023300
     11 O1         -15.3270    18.8750   -21.4390 os         1 ZTQ      -0.343100
     12 C3         -14.3020    19.7380   -21.2310 ca         1 ZTQ       0.210100
     13 C9          -9.2590    23.5100   -19.5250 ca         1 ZTQ      -0.115000
     14 C11         -9.3240    23.9080   -21.8930 ca         1 ZTQ      -0.115000
     15 C12        -10.4120    23.0510   -22.0070 ca         1 ZTQ      -0.114500
     16 C14        -13.3520    19.8260   -22.2540 ca         1 ZTQ      -0.179500
     17 H1         -14.8630    20.4950   -19.2860 ha         1 ZTQ       0.130500
     18 H2         -12.9680    22.0080   -19.1090 ha         1 ZTQ       0.096500
     19 H3         -10.7210    22.1480   -18.7580 ha         1 ZTQ       0.114500
     20 H4          -7.8950    24.8130   -20.5620 ha         1 ZTQ       0.098000
     21 H5         -11.5450    20.7190   -22.9390 ha         1 ZTQ       0.096500
     22 H6         -18.2400    17.7490   -20.3130 hc         1 ZTQ       0.030367
     23 H7         -17.8310    18.3620   -21.9240 hc         1 ZTQ       0.030367
     24 H8         -17.0470    16.8950   -21.3080 hc         1 ZTQ       0.030367
     25 H9         -16.7130    19.7070   -20.1520 h1         1 ZTQ       0.027700
     26 H10         -8.8110    23.6780   -18.5540 ha         1 ZTQ       0.100000
     27 H11         -8.9370    24.4010   -22.7770 ha         1 ZTQ       0.100000
     28 H12        -10.8660    22.8950   -22.9770 ha         1 ZTQ       0.114500
     29 H13        -13.4690    19.2010   -23.1300 ha         1 ZTQ       0.130500
     30 O2         -14.8030    17.2760   -19.2370 o          1 ZTQ      -0.714000
     31 O3         -16.4390    18.3040   -18.0870 o          1 ZTQ      -0.714000
@<TRIPOS>BOND
     1     1     2 ar  
     2     1    12 ar  
     3     1    17 1   
     4     2     3 ar  
     5     2    18 1   
     6     3     4 1   
     7     3     7 ar  
     8     4     5 ar  
     9     4    15 ar  
    10     5    13 ar  
    11     5    19 1   
    12     6    13 ar  
    13     6    14 ar  
    14     6    20 1   
    15     7    16 ar  
    16     7    21 1   
    17     8    10 1   
    18     8    30 1   
    19     8    31 1   
    20     9    10 1   
    21     9    22 1   
    22     9    23 1   
    23     9    24 1   
    24    10    11 1   
    25    10    25 1   
    26    11    12 1   
    27    12    16 ar  
    28    13    26 1   
    29    14    15 ar  
    30    14    27 1   
    31    15    28 1   
    32    16    29 1   
@<TRIPOS>SUBSTRUCTURE
     1 ZTQ         1 TEMP              0 ****  ****    0 ROOT
