@<TRIPOS>MOLECULE
ZTQ
   31    32     1     0     0
SMALL
No Charge or Current Charge


@<TRIPOS>ATOM
      1 C4         -14.1650    20.5750   -20.0940 ca         1 ZTQ      -0.179500
      2 C5         -13.0630    21.4420   -19.9870 ca         1 ZTQ      -0.062000
      3 C6         -12.0780    21.5080   -21.0050 cp         1 ZTQ      -0.129000
      4 C7         -10.9060    22.4330   -20.8900 cp         1 ZTQ       0.014000
      5 C8         -10.3090    22.7080   -19.6320 ca         1 ZTQ      -0.114500
      6 C10         -8.6810    24.1890   -20.6700 ca         1 ZTQ      -0.134000
      7 C13        -12.2420    20.6700   -22.1370 ca         1 ZTQ      -0.062000
      8 C15        -15.8410    17.8790   -19.1200 c          1 ZTQ       0.695000
      9 C1         -17.5240    17.8790   -21.0560 c3         1 ZTQ      -0.069100
     10 C2         -16.3770    18.6560   -20.3730 c3         1 ZTQ       0.023300
     11 O1         -15.3720    18.8800   -21.3960 os         1 ZTQ      -0.343100
     12 C3         -14.3060    19.7450   -21.2260 ca         1 ZTQ       0.210100
     13 C9          -9.2090    23.5760   -19.5230 ca         1 ZTQ      -0.115000
     14 C11         -9.2540    23.9330   -21.9260 ca         1 ZTQ      -0.115000
     15 C12        -10.3530    23.0640   -22.0340 ca         1 ZTQ      -0.114500
     16 C14        -13.3430    19.8030   -22.2430 ca         1 ZTQ      -0.179500
     17 H1         -14.8970    20.5650   -19.2930 ha         1 ZTQ       0.130500
     18 H2         -12.9820    22.0800   -19.1110 ha         1 ZTQ       0.096500
     19 H3         -10.6940    22.2330   -18.7340 ha         1 ZTQ       0.114500
     20 H4          -7.8290    24.8610   -20.5860 ha         1 ZTQ       0.098000
     21 H5         -11.5040    20.6810   -22.9350 ha         1 ZTQ       0.096500
     22 H6         -18.3560    17.7290   -20.3580 hc         1 ZTQ       0.030367
     23 H7         -17.9040    18.4340   -21.9230 hc         1 ZTQ       0.030367
     24 H8         -17.1780    16.8950   -21.3950 hc         1 ZTQ       0.030367
     25 H9         -16.7860    19.6140   -20.0300 h1         1 ZTQ       0.027700
     26 H10         -8.7640    23.7700   -18.5490 ha         1 ZTQ       0.100000
     27 H11         -8.8480    24.4090   -22.8160 ha         1 ZTQ       0.100000
     28 H12        -10.7910    22.8900   -23.0130 ha         1 ZTQ       0.114500
     29 H13        -13.4490    19.1680   -23.1180 ha         1 ZTQ       0.130500
     30 O2         -14.7550    17.3150   -19.1740 o          1 ZTQ      -0.714000
     31 O3         -16.5170    17.9130   -18.1000 o          1 ZTQ      -0.714000
@<TRIPOS>BOND
     1     1     2 ar  
     2     1    12 ar  
     3     1    17 1   
     4     2     3 ar  
     5     2    18 1   
     6     3     4 1   
     7     3     7 ar  
     8     4     5 ar  
     9     4    15 ar  
    10     5    13 ar  
    11     5    19 1   
    12     6    13 ar  
    13     6    14 ar  
    14     6    20 1   
    15     7    16 ar  
    16     7    21 1   
    17     8    10 1   
    18     8    30 1   
    19     8    31 1   
    20     9    10 1   
    21     9    22 1   
    22     9    23 1   
    23     9    24 1   
    24    10    11 1   
    25    10    25 1   
    26    11    12 1   
    27    12    16 ar  
    28    13    26 1   
    29    14    15 ar  
    30    14    27 1   
    31    15    28 1   
    32    16    29 1   
@<TRIPOS>SUBSTRUCTURE
     1 ZTQ         1 TEMP              0 ****  ****    0 ROOT
