@<TRIPOS>MOLECULE
ZTT
   60    63     1     0     0
SMALL
No Charge or Current Charge


@<TRIPOS>ATOM
      1 C10         14.0560   -48.8360    28.0990 c3         1 ZTT       0.159100
      2 C13         13.6260   -48.1840    30.9010 ca         1 ZTT      -0.164500
      3 C15         14.5910   -47.5950    33.0720 ca         1 ZTT      -0.109800
      4 C22         17.0390   -49.4640    36.4170 c3         1 ZTT       0.089300
      5 C24         17.1140   -47.4130    33.3150 ce         1 ZTT      -0.231700
      6 C26         16.0330   -47.9930    31.1460 ca         1 ZTT      -0.160500
      7 C28         15.2660   -50.0990    22.5500 ca         1 ZTT      -0.000800
      8 C01         13.1550   -51.3660    19.5380 c3         1 ZTT      -0.076100
      9 C02         14.3700   -50.7410    20.2750 c3         1 ZTT      -0.078400
     10 C04         14.1370   -50.3760    21.7440 ca         1 ZTT      -0.109800
     11 C05         12.8470   -50.3040    22.3150 ca         1 ZTT      -0.056500
     12 C06         12.6880   -49.9790    23.6720 ca         1 ZTT      -0.164500
     13 C07         13.8060   -49.7240    24.4770 ca         1 ZTT       0.144100
     14 O08         13.5860   -49.4160    25.8040 os         1 ZTT      -0.357100
     15 C09         14.6660   -49.1350    26.7160 c3         1 ZTT       0.159100
     16 O11         15.1360   -48.5560    29.0120 os         1 ZTT      -0.357100
     17 C12         14.9160   -48.2480    30.3390 ca         1 ZTT       0.144100
     18 C14         13.4660   -47.8590    32.2590 ca         1 ZTT      -0.056500
     19 C16         14.4700   -47.2190    34.5520 c3         1 ZTT      -0.078400
     20 C18         13.0520   -46.8020    35.0250 c3         1 ZTT      -0.076100
     21 C19         15.0640   -48.3800    35.3780 c          1 ZTT       0.564500
     22 O20         14.3440   -49.2390    35.8780 o          1 ZTT      -0.542000
     23 N21         16.4750   -48.4710    35.4750 n          1 ZTT      -0.335000
     24 C23         17.3380   -47.7560    34.6070 c2         1 ZTT      -0.047400
     25 C25         15.8850   -47.6810    32.5090 ca         1 ZTT      -0.000800
     26 C27         15.0960   -49.7880    23.9120 ca         1 ZTT      -0.160500
     27 C29         16.6550   -50.1590    22.0040 ce         1 ZTT      -0.231700
     28 C30         17.0720   -49.7620    20.7770 c2         1 ZTT      -0.047400
     29 N31         16.2950   -49.1740    19.7470 n          1 ZTT      -0.335000
     30 C32         16.8700   -48.0880    18.9230 c3         1 ZTT       0.089300
     31 C33         14.9250   -49.4870    19.5660 c          1 ZTT       0.564500
     32 O34         14.1920   -48.7430    18.9210 o          1 ZTT      -0.542000
     33 H43         13.3830   -47.9730    28.0180 h1         1 ZTT       0.051450
     34 H42         13.4780   -49.7060    28.4360 h1         1 ZTT       0.051450
     35 H44         12.7390   -48.3790    30.3060 ha         1 ZTT       0.125500
     36 H51         18.1310   -49.3670    36.4670 h1         1 ZTT       0.048033
     37 H50         16.6240   -49.3030    37.4200 h1         1 ZTT       0.048033
     38 H49         16.7890   -50.4780    36.0800 h1         1 ZTT       0.048033
     39 H53         17.9100   -46.9140    32.7590 ha         1 ZTT       0.189500
     40 H54         17.0260   -48.0480    30.7080 ha         1 ZTT       0.123000
     41 H36         12.7970   -52.2560    20.0700 hc         1 ZTT       0.046367
     42 H35         12.3260   -50.6540    19.4510 hc         1 ZTT       0.046367
     43 H37         13.4420   -51.6720    18.5250 hc         1 ZTT       0.046367
     44 H38         11.9560   -50.4980    21.7230 ha         1 ZTT       0.121500
     45 H39         11.6920   -49.9280    24.1030 ha         1 ZTT       0.125500
     46 H40         15.3390   -49.9980    26.7970 h1         1 ZTT       0.051450
     47 H41         15.2430   -48.2650    26.3790 h1         1 ZTT       0.051450
     48 H45         12.4580   -47.8150    32.6620 ha         1 ZTT       0.121500
     49 H17         15.1270   -46.3520    34.6890 hc         1 ZTT       0.072200
     50 H47         13.0830   -46.4700    36.0690 hc         1 ZTT       0.046367
     51 H46         12.6700   -45.9720    34.4190 hc         1 ZTT       0.046367
     52 H48         12.3440   -47.6370    34.9600 hc         1 ZTT       0.046367
     53 H52         18.3010   -47.5310    35.0710 h4         1 ZTT       0.186500
     54 H55         15.9770   -49.5900    24.5140 ha         1 ZTT       0.123000
     55 H56         17.3940   -50.5400    22.7110 ha         1 ZTT       0.189500
     56 H57         18.1300   -49.8280    20.5130 h4         1 ZTT       0.186500
     57 H60         16.6930   -48.2940    17.8590 h1         1 ZTT       0.048033
     58 H58         16.4020   -47.1320    19.1900 h1         1 ZTT       0.048033
     59 H59         17.9520   -48.0110    19.0920 h1         1 ZTT       0.048033
     60 H03         15.1680   -51.4930    20.2820 hc         1 ZTT       0.072200
@<TRIPOS>BOND
     1     1    15 1   
     2     1    16 1   
     3     1    33 1   
     4     1    34 1   
     5     2    17 ar  
     6     2    18 ar  
     7     2    35 1   
     8     3    18 ar  
     9     3    19 1   
    10     3    25 ar  
    11     4    23 1   
    12     4    36 1   
    13     4    37 1   
    14     4    38 1   
    15     5    24 2   
    16     5    25 1   
    17     5    39 1   
    18     6    17 ar  
    19     6    25 ar  
    20     6    40 1   
    21     7    10 ar  
    22     7    26 ar  
    23     7    27 1   
    24     8     9 1   
    25     8    41 1   
    26     8    42 1   
    27     8    43 1   
    28     9    10 1   
    29     9    31 1   
    30     9    60 1   
    31    10    11 ar  
    32    11    12 ar  
    33    11    44 1   
    34    12    13 ar  
    35    12    45 1   
    36    13    14 1   
    37    13    26 ar  
    38    14    15 1   
    39    15    46 1   
    40    15    47 1   
    41    16    17 1   
    42    18    48 1   
    43    19    20 1   
    44    19    21 1   
    45    19    49 1   
    46    20    50 1   
    47    20    51 1   
    48    20    52 1   
    49    21    22 2   
    50    21    23 1   
    51    23    24 1   
    52    24    53 1   
    53    26    54 1   
    54    27    28 2   
    55    27    55 1   
    56    28    29 1   
    57    28    56 1   
    58    29    30 1   
    59    29    31 1   
    60    30    57 1   
    61    30    58 1   
    62    30    59 1   
    63    31    32 2   
@<TRIPOS>SUBSTRUCTURE
     1 ZTT         1 TEMP              0 ****  ****    0 ROOT
