@<TRIPOS>MOLECULE
ZTT
   60    63     1     0     0
SMALL
abcg2


@<TRIPOS>ATOM
      1 C10         14.0530   -48.7930    28.0860 c3         1 ZTT       0.159100
      2 C13         13.6460   -48.1960    30.8280 ca         1 ZTT      -0.164500
      3 C15         14.6290   -47.6460    32.9820 ca         1 ZTT      -0.109800
      4 C22         16.8960   -49.5160    36.3160 c3         1 ZTT       0.089300
      5 C24         17.1190   -47.5820    33.2070 ce         1 ZTT      -0.231700
      6 C26         16.0380   -48.0070    31.0430 ca         1 ZTT      -0.160500
      7 C28         15.2940   -50.0180    22.6570 ca         1 ZTT      -0.000800
      8 C01         13.2640   -51.4680    19.7450 c3         1 ZTT      -0.076100
      9 C02         14.4390   -50.7750    20.4220 c3         1 ZTT      -0.078400
     10 C04         14.1900   -50.3280    21.8490 ca         1 ZTT      -0.109800
     11 C05         12.9120   -50.2570    22.4060 ca         1 ZTT      -0.056500
     12 C06         12.7240   -49.9280    23.7380 ca         1 ZTT      -0.164500
     13 C07         13.8300   -49.6700    24.5540 ca         1 ZTT       0.144100
     14 O08         13.5560   -49.3760    25.8580 os         1 ZTT      -0.357100
     15 C09         14.6470   -49.0810    26.7230 c3         1 ZTT       0.159100
     16 O11         15.1580   -48.5020    28.9370 os         1 ZTT      -0.357100
     17 C12         14.9170   -48.2390    30.2540 ca         1 ZTT       0.144100
     18 C14         13.5210   -47.8960    32.1810 ca         1 ZTT      -0.056500
     19 C16         14.5170   -47.2200    34.4330 c3         1 ZTT      -0.078400
     20 C18         13.1330   -46.7570    34.8670 c3         1 ZTT      -0.076100
     21 C19         15.0140   -48.3610    35.3130 c          1 ZTT       0.564500
     22 O20         14.2640   -49.0620    35.9850 o          1 ZTT      -0.542000
     23 N21         16.3720   -48.5500    35.3460 n          1 ZTT      -0.335000
     24 C23         17.2960   -47.9500    34.4870 c2         1 ZTT      -0.047400
     25 C25         15.9120   -47.7400    32.4070 ca         1 ZTT      -0.000800
     26 C27         15.1080   -49.7190    24.0170 ca         1 ZTT      -0.160500
     27 C29         16.6450   -49.9750    22.1160 ce         1 ZTT      -0.231700
     28 C30         17.0090   -49.5850    20.8830 c2         1 ZTT      -0.047400
     29 N31         16.1850   -49.1450    19.8440 n          1 ZTT      -0.335000
     30 C32         16.7200   -48.0950    18.9720 c3         1 ZTT       0.089300
     31 C33         14.8990   -49.5650    19.6170 c          1 ZTT       0.564500
     32 O34         14.1870   -49.0030    18.7900 o          1 ZTT      -0.542000
     33 H43         13.3720   -47.9390    28.0340 h1         1 ZTT       0.051450
     34 H42         13.5020   -49.6630    28.4530 h1         1 ZTT       0.051450
     35 H44         12.7590   -48.3710    30.2370 ha         1 ZTT       0.125500
     36 H51         17.9550   -49.3210    36.4610 h1         1 ZTT       0.048033
     37 H50         16.3690   -49.4110    37.2620 h1         1 ZTT       0.048033
     38 H49         16.7690   -50.5370    35.9530 h1         1 ZTT       0.048033
     39 H53         17.9980   -47.2030    32.6990 ha         1 ZTT       0.189500
     40 H54         17.0200   -48.0600    30.5870 ha         1 ZTT       0.123000
     41 H36         12.9470   -52.3280    20.3360 hc         1 ZTT       0.046367
     42 H35         12.4150   -50.7980    19.6210 hc         1 ZTT       0.046367
     43 H37         13.5580   -51.8200    18.7560 hc         1 ZTT       0.046367
     44 H38         12.0450   -50.4810    21.8000 ha         1 ZTT       0.121500
     45 H39         11.7310   -49.8870    24.1660 ha         1 ZTT       0.125500
     46 H40         15.3320   -49.9320    26.7820 h1         1 ZTT       0.051450
     47 H41         15.2000   -48.2100    26.3590 h1         1 ZTT       0.051450
     48 H45         12.5270   -47.8340    32.6020 ha         1 ZTT       0.121500
     49 H17         15.2220   -46.3940    34.5720 hc         1 ZTT       0.072200
     50 H47         13.1630   -46.4050    35.8980 hc         1 ZTT       0.046367
     51 H46         12.7980   -45.9360    34.2310 hc         1 ZTT       0.046367
     52 H48         12.3990   -47.5600    34.8110 hc         1 ZTT       0.046367
     53 H52         18.2790   -47.8520    34.9280 h4         1 ZTT       0.186500
     54 H55         15.9760   -49.5070    24.6230 ha         1 ZTT       0.123000
     55 H56         17.4550   -50.2020    22.7990 ha         1 ZTT       0.189500
     56 H57         18.0620   -49.5180    20.6440 h4         1 ZTT       0.186500
     57 H60         16.3890   -48.2610    17.9510 h1         1 ZTT       0.048033
     58 H58         16.3790   -47.1110    19.2990 h1         1 ZTT       0.048033
     59 H59         17.8060   -48.1260    19.0180 h1         1 ZTT       0.048033
     60 H03         15.2860   -51.4680    20.4510 hc         1 ZTT       0.072200
@<TRIPOS>BOND
     1     1    15 1   
     2     1    16 1   
     3     1    33 1   
     4     1    34 1   
     5     2    17 ar  
     6     2    18 ar  
     7     2    35 1   
     8     3    18 ar  
     9     3    19 1   
    10     3    25 ar  
    11     4    23 1   
    12     4    36 1   
    13     4    37 1   
    14     4    38 1   
    15     5    24 2   
    16     5    25 1   
    17     5    39 1   
    18     6    17 ar  
    19     6    25 ar  
    20     6    40 1   
    21     7    10 ar  
    22     7    26 ar  
    23     7    27 1   
    24     8     9 1   
    25     8    41 1   
    26     8    42 1   
    27     8    43 1   
    28     9    10 1   
    29     9    31 1   
    30     9    60 1   
    31    10    11 ar  
    32    11    12 ar  
    33    11    44 1   
    34    12    13 ar  
    35    12    45 1   
    36    13    14 1   
    37    13    26 ar  
    38    14    15 1   
    39    15    46 1   
    40    15    47 1   
    41    16    17 1   
    42    18    48 1   
    43    19    20 1   
    44    19    21 1   
    45    19    49 1   
    46    20    50 1   
    47    20    51 1   
    48    20    52 1   
    49    21    22 2   
    50    21    23 1   
    51    23    24 1   
    52    24    53 1   
    53    26    54 1   
    54    27    28 2   
    55    27    55 1   
    56    28    29 1   
    57    28    56 1   
    58    29    30 1   
    59    29    31 1   
    60    30    57 1   
    61    30    58 1   
    62    30    59 1   
    63    31    32 2   
@<TRIPOS>SUBSTRUCTURE
     1 ZTT         1 TEMP              0 ****  ****    0 ROOT
