@<TRIPOS>MOLECULE
ZTV
   55    59     1     0     0
SMALL
No Charge or Current Charge


@<TRIPOS>ATOM
      1 C1         101.7920   115.2210    19.1040 ca         1 ZTV       0.627900
      2 C2         102.7380   116.5000    20.7450 ca         1 ZTV       0.527000
      3 C3         102.7450   117.5950    19.9330 ca         1 ZTV      -0.205200
      4 O1         100.2430   111.3560    17.9810 os         1 ZTV      -0.443000
      5 C11        100.5340   113.1060    19.7210 c6         1 ZTV       0.190500
      6 C12        100.5890   111.5840    19.3660 c6         1 ZTV       0.144600
      7 C13        101.1500   112.0230    17.0750 c6         1 ZTV       0.147600
      8 C14        101.1340   113.5630    17.3060 c6         1 ZTV       0.176800
      9 C15         99.0720   113.6280    19.7930 c3         1 ZTV      -0.112100
     10 C16        104.1980   118.9580    22.9740 ca         1 ZTV       0.337700
     11 C17        104.2620   119.6270    25.2100 ca         1 ZTV       0.342900
     12 C18        105.3070   120.5320    24.9630 ca         1 ZTV      -0.156000
     13 C19        105.8120   120.6510    23.6600 ca         1 ZTV      -0.073000
     14 C20        105.2450   119.8520    22.6550 ca         1 ZTV      -0.159000
     15 N          102.2730   115.3110    20.3580 nb         1 ZTV      -0.704000
     16 C          101.7610   116.3060    18.2110 ca         1 ZTV      -0.286000
     17 O          102.7690   119.3060    15.0040 os         1 ZTV      -0.440000
     18 C4         102.2530   117.5430    18.6320 ca         1 ZTV       0.383000
     19 C5         103.5900   118.1330    21.9030 cc         1 ZTV       0.355800
     20 C6         103.5840   119.2480    17.3510 c6         1 ZTV       0.186500
     21 C7         103.8760   118.9140    15.8520 c6         1 ZTV       0.127600
     22 C8         101.5380   118.6320    15.3560 c6         1 ZTV       0.120600
     23 C9         101.1410   118.9330    16.8330 c6         1 ZTV       0.170800
     24 N1         103.2730   116.8200    21.9870 nd         1 ZTV      -0.605700
     25 N2         103.2700   118.6360    20.6450 na         1 ZTV      -0.297600
     26 N3         102.2710   118.6750    17.7890 nh         1 ZTV      -0.815400
     27 N4         101.3200   113.9410    18.7460 nh         1 ZTV      -0.768300
     28 N5         103.7120   118.8570    24.2440 nb         1 ZTV      -0.616000
     29 H12        100.9570   113.1950    20.7340 h1         1 ZTV       0.099700
     30 H14         99.8960   111.0220    20.0080 h1         1 ZTV       0.054700
     31 H13        101.6020   111.2000    19.5510 h1         1 ZTV       0.054700
     32 H15        100.8560   111.7980    16.0400 h1         1 ZTV       0.050200
     33 H16        102.1660   111.6340    17.2320 h1         1 ZTV       0.050200
     34 H18        101.9360   114.0000    16.6930 h1         1 ZTV       0.042700
     35 H17        100.1810   113.9680    16.9340 h1         1 ZTV       0.042700
     36 H19         98.4890   113.0600    20.5280 hc         1 ZTV       0.042700
     37 H20         99.0430   114.6810    20.0940 hc         1 ZTV       0.042700
     38 H21         98.5630   113.5400    18.8260 hc         1 ZTV       0.042700
     39 H22        103.8490   119.5170    26.2120 h4         1 ZTV       0.027100
     40 H23        105.7130   121.1290    25.7750 ha         1 ZTV       0.128000
     41 H24        106.6220   121.3440    23.4360 ha         1 ZTV       0.121000
     42 H25        105.6170   119.9190    21.6360 ha         1 ZTV       0.116000
     43 H          101.3640   116.1910    17.2110 ha         1 ZTV       0.118000
     44 H2         104.3960   118.8050    17.9490 h1         1 ZTV       0.059700
     45 H4         104.0470   117.8340    15.7410 h1         1 ZTV       0.056200
     46 H3         104.7860   119.4340    15.5200 h1         1 ZTV       0.056200
     47 H6         100.7380   118.9660    14.6800 h1         1 ZTV       0.053700
     48 H5         101.6690   117.5490    15.2160 h1         1 ZTV       0.053700
     49 H7         100.8240   119.9840    16.9080 h1         1 ZTV       0.065200
     50 H8         100.2590   118.3320    17.0980 h1         1 ZTV       0.065200
     51 H1         103.3690   119.5950    20.3360 hn         1 ZTV       0.356000
     52 C10        103.6140   120.7770    17.6200 c3         1 ZTV      -0.091100
     53 H11        103.4160   120.9990    18.6750 hc         1 ZTV       0.044033
     54 H10        104.5950   121.1970    17.3730 hc         1 ZTV       0.044033
     55 H9         102.8660   121.3090    17.0210 hc         1 ZTV       0.044033
@<TRIPOS>BOND
     1     1    15 ar  
     2     1    16 ar  
     3     1    27 1   
     4     2     3 ar  
     5     2    15 ar  
     6     2    24 1   
     7     3    18 ar  
     8     3    25 1   
     9     4     6 1   
    10     4     7 1   
    11     5     6 1   
    12     5     9 1   
    13     5    27 1   
    14     5    29 1   
    15     6    30 1   
    16     6    31 1   
    17     7     8 1   
    18     7    32 1   
    19     7    33 1   
    20     8    27 1   
    21     8    34 1   
    22     8    35 1   
    23     9    36 1   
    24     9    37 1   
    25     9    38 1   
    26    10    14 ar  
    27    10    19 1   
    28    10    28 ar  
    29    11    12 ar  
    30    11    28 ar  
    31    11    39 1   
    32    12    13 ar  
    33    12    40 1   
    34    13    14 ar  
    35    13    41 1   
    36    14    42 1   
    37    16    18 ar  
    38    16    43 1   
    39    17    21 1   
    40    17    22 1   
    41    18    26 1   
    42    19    24 2   
    43    19    25 1   
    44    20    21 1   
    45    20    26 1   
    46    20    44 1   
    47    20    52 1   
    48    21    45 1   
    49    21    46 1   
    50    22    23 1   
    51    22    47 1   
    52    22    48 1   
    53    23    26 1   
    54    23    49 1   
    55    23    50 1   
    56    25    51 1   
    57    52    53 1   
    58    52    54 1   
    59    52    55 1   
@<TRIPOS>SUBSTRUCTURE
     1 ZTV         1 TEMP              0 ****  ****    0 ROOT
