@<TRIPOS>MOLECULE
ZTV
   55    59     1     0     0
SMALL
abcg2


@<TRIPOS>ATOM
      1 C1         101.7320   115.2440    19.0820 ca         1 ZTV       0.627900
      2 C2         102.7160   116.5410    20.6370 ca         1 ZTV       0.527000
      3 C3         102.7920   117.6430    19.7830 ca         1 ZTV      -0.205200
      4 O1          99.9670   111.5610    18.0990 os         1 ZTV      -0.443000
      5 C11        100.7570   113.1250    19.7840 c6         1 ZTV       0.190500
      6 C12        100.7310   111.6930    19.2750 c6         1 ZTV       0.144600
      7 C13        100.5330   112.3440    17.0780 c6         1 ZTV       0.147600
      8 C14        100.5860   113.8170    17.4400 c6         1 ZTV       0.176800
      9 C15         99.4010   113.5740    20.3240 c3         1 ZTV      -0.112100
     10 C16        104.1510   118.9090    22.8720 ca         1 ZTV       0.337700
     11 C17        104.4870   119.0950    25.1190 ca         1 ZTV       0.342900
     12 C18        105.2260   120.2620    24.9760 ca         1 ZTV      -0.156000
     13 C19        105.4270   120.7540    23.6960 ca         1 ZTV      -0.073000
     14 C20        104.8850   120.0670    22.6220 ca         1 ZTV      -0.159000
     15 N          102.2080   115.3540    20.3150 nb         1 ZTV      -0.704000
     16 C          101.7450   116.3160    18.1550 ca         1 ZTV      -0.286000
     17 O          103.3620   119.0600    15.0430 os         1 ZTV      -0.440000
     18 C4         102.2870   117.5590    18.4730 ca         1 ZTV       0.383000
     19 C5         103.5580   118.1280    21.7800 cc         1 ZTV       0.355800
     20 C6         103.5060   119.4300    17.4510 c6         1 ZTV       0.186500
     21 C7         104.2050   118.9780    16.1670 c6         1 ZTV       0.127600
     22 C8         102.2230   118.2400    15.1990 c6         1 ZTV       0.120600
     23 C9         101.4420   118.6440    16.4380 c6         1 ZTV       0.170800
     24 N1         103.2070   116.8680    21.8680 nd         1 ZTV      -0.605700
     25 N2         103.3330   118.6460    20.5470 na         1 ZTV      -0.297600
     26 N3         102.2790   118.6430    17.6270 nh         1 ZTV      -0.815400
     27 N4         101.2430   114.0040    18.7200 nh         1 ZTV      -0.768300
     28 N5         103.9600   118.4340    24.1010 nb         1 ZTV      -0.616000
     29 H12        101.4810   113.1540    20.5970 h1         1 ZTV       0.099700
     30 H14        100.2870   111.0440    20.0320 h1         1 ZTV       0.054700
     31 H13        101.7610   111.3500    19.1000 h1         1 ZTV       0.054700
     32 H15         99.9240   112.2160    16.1810 h1         1 ZTV       0.050200
     33 H16        101.5490   111.9930    16.8490 h1         1 ZTV       0.050200
     34 H18        101.1520   114.3090    16.6490 h1         1 ZTV       0.042700
     35 H17         99.5750   114.2480    17.4310 h1         1 ZTV       0.042700
     36 H19         99.0920   112.9390    21.1550 hc         1 ZTV       0.042700
     37 H20         99.4510   114.5990    20.6930 hc         1 ZTV       0.042700
     38 H21         98.6200   113.5270    19.5640 hc         1 ZTV       0.042700
     39 H22        104.3120   118.6790    26.1040 h4         1 ZTV       0.027100
     40 H23        105.6330   120.7620    25.8440 ha         1 ZTV       0.128000
     41 H24        106.0050   121.6530    23.5320 ha         1 ZTV       0.121000
     42 H25        105.0560   120.4220    21.6140 ha         1 ZTV       0.116000
     43 H          101.3340   116.1710    17.1700 ha         1 ZTV       0.118000
     44 H2         104.1970   119.1910    18.2610 h1         1 ZTV       0.059700
     45 H4         104.5650   117.9470    16.3040 h1         1 ZTV       0.056200
     46 H3         105.0720   119.6110    15.9720 h1         1 ZTV       0.056200
     47 H6         101.6060   118.3620    14.3070 h1         1 ZTV       0.053700
     48 H5         102.5180   117.1830    15.2640 h1         1 ZTV       0.053700
     49 H7         101.0450   119.6530    16.3000 h1         1 ZTV       0.065200
     50 H8         100.5790   117.9970    16.5810 h1         1 ZTV       0.065200
     51 H1         103.4040   119.6190    20.2950 hn         1 ZTV       0.356000
     52 C10        103.2270   120.9270    17.4830 c3         1 ZTV      -0.091100
     53 H11        102.7330   121.2060    18.4150 hc         1 ZTV       0.044033
     54 H10        104.1630   121.4820    17.4210 hc         1 ZTV       0.044033
     55 H9         102.5960   121.2530    16.6570 hc         1 ZTV       0.044033
@<TRIPOS>BOND
     1     1    15 ar  
     2     1    16 ar  
     3     1    27 1   
     4     2     3 ar  
     5     2    15 ar  
     6     2    24 1   
     7     3    18 ar  
     8     3    25 1   
     9     4     6 1   
    10     4     7 1   
    11     5     6 1   
    12     5     9 1   
    13     5    27 1   
    14     5    29 1   
    15     6    30 1   
    16     6    31 1   
    17     7     8 1   
    18     7    32 1   
    19     7    33 1   
    20     8    27 1   
    21     8    34 1   
    22     8    35 1   
    23     9    36 1   
    24     9    37 1   
    25     9    38 1   
    26    10    14 ar  
    27    10    19 1   
    28    10    28 ar  
    29    11    12 ar  
    30    11    28 ar  
    31    11    39 1   
    32    12    13 ar  
    33    12    40 1   
    34    13    14 ar  
    35    13    41 1   
    36    14    42 1   
    37    16    18 ar  
    38    16    43 1   
    39    17    21 1   
    40    17    22 1   
    41    18    26 1   
    42    19    24 2   
    43    19    25 1   
    44    20    21 1   
    45    20    26 1   
    46    20    44 1   
    47    20    52 1   
    48    21    45 1   
    49    21    46 1   
    50    22    23 1   
    51    22    47 1   
    52    22    48 1   
    53    23    26 1   
    54    23    49 1   
    55    23    50 1   
    56    25    51 1   
    57    52    53 1   
    58    52    54 1   
    59    52    55 1   
@<TRIPOS>SUBSTRUCTURE
     1 ZTV         1 TEMP              0 ****  ****    0 ROOT
