@<TRIPOS>MOLECULE
ZTW
   27    29     1     0     0
SMALL
abcg2


@<TRIPOS>ATOM
      1 C1          -1.7550     0.1680    -2.8910 ca         1 ZTW      -0.030000
      2 C2          -1.2320     0.0680    -4.1630 ca         1 ZTW      -0.204000
      3 C3           0.1460    -0.1150    -4.3610 ca         1 ZTW       0.147100
      4 O3           0.6810    -0.2180    -5.5940 oh         1 ZTW      -0.533100
      5 C4           1.0080    -0.1930    -3.2770 ca         1 ZTW      -0.124000
      6 C5           0.4650    -0.0900    -2.0020 ca         1 ZTW      -0.122000
      7 S6           1.3300    -0.1640    -0.5030 ss         1 ZTW       0.051400
      8 C7          -0.1420     0.0580     0.4210 cc         1 ZTW       0.019400
      9 C8          -0.0870     0.0860     1.8800 ca         1 ZTW      -0.065800
     10 C9           1.0590     0.4980     2.5660 ca         1 ZTW      -0.056500
     11 C10          1.1020     0.5260     3.9480 ca         1 ZTW      -0.176500
     12 C11         -0.0130     0.1420     4.6900 ca         1 ZTW       0.146100
     13 O11          0.0750     0.1840     6.0310 oh         1 ZTW      -0.530100
     14 C12         -1.1650    -0.2710     4.0220 ca         1 ZTW      -0.176500
     15 C13         -1.1930    -0.3010     2.6390 ca         1 ZTW      -0.056500
     16 C14         -0.9110     0.0890    -1.7790 ca         1 ZTW      -0.108800
     17 C15         -1.2260     0.1720    -0.3860 cd         1 ZTW      -0.162200
     18 H1          -2.8200     0.3060    -2.7570 ha         1 ZTW       0.116000
     19 H2          -1.8930     0.1290    -5.0200 ha         1 ZTW       0.113000
     20 H3          -0.0050    -0.1430    -6.2660 ho         1 ZTW       0.466000
     21 H4           2.0720    -0.3300    -3.4300 ha         1 ZTW       0.137000
     22 H9           1.9360     0.8220     2.0190 ha         1 ZTW       0.118000
     23 H10          2.0010     0.8530     4.4550 ha         1 ZTW       0.122500
     24 H11         -0.7480    -0.1160     6.4330 ho         1 ZTW       0.466000
     25 H12         -2.0390    -0.5840     4.5810 ha         1 ZTW       0.122500
     26 H13         -2.0910    -0.6520     2.1470 ha         1 ZTW       0.118000
     27 H15         -2.2300     0.3340    -0.0160 ha         1 ZTW       0.202000
@<TRIPOS>BOND
     1     1     2 ar  
     2     1    16 ar  
     3     1    18 1   
     4     2     3 ar  
     5     2    19 1   
     6     3     4 1   
     7     3     5 ar  
     8     4    20 1   
     9     5     6 ar  
    10     5    21 1   
    11     6     7 1   
    12     6    16 ar  
    13     7     8 1   
    14     8     9 1   
    15     8    17 2   
    16     9    10 ar  
    17     9    15 ar  
    18    10    11 ar  
    19    10    22 1   
    20    11    12 ar  
    21    11    23 1   
    22    12    13 1   
    23    12    14 ar  
    24    13    24 1   
    25    14    15 ar  
    26    14    25 1   
    27    15    26 1   
    28    16    17 1   
    29    17    27 1   
@<TRIPOS>SUBSTRUCTURE
     1 ZTW         1 TEMP              0 ****  ****    0 ROOT
