@<TRIPOS>MOLECULE
ZTW
   27    29     1     0     0
SMALL
No Charge or Current Charge


@<TRIPOS>ATOM
      1 C1          -1.7410     0.2000    -2.8260 ca         1 ZTW      -0.030000
      2 C2          -1.2760     0.1060    -4.1540 ca         1 ZTW      -0.204000
      3 C3           0.0940    -0.1100    -4.4110 ca         1 ZTW       0.147100
      4 O3           0.5400    -0.2000    -5.6950 oh         1 ZTW      -0.533100
      5 C4           1.0070    -0.2330    -3.3460 ca         1 ZTW      -0.124000
      6 C5           0.5300    -0.1380    -2.0290 ca         1 ZTW      -0.122000
      7 S6           1.5290    -0.2620    -0.5510 ss         1 ZTW       0.051400
      8 C7           0.0500    -0.0320     0.4230 cc         1 ZTW       0.019400
      9 C8          -0.0080     0.0440     1.8860 ca         1 ZTW      -0.065800
     10 C9           1.1040     0.5240     2.6080 ca         1 ZTW      -0.056500
     11 C10          1.0660     0.5970     4.0120 ca         1 ZTW      -0.176500
     12 C11         -0.0790     0.1880     4.7080 ca         1 ZTW       0.146100
     13 O11         -0.1050     0.2620     6.0680 oh         1 ZTW      -0.530100
     14 C12         -1.1900    -0.2990     4.0020 ca         1 ZTW      -0.176500
     15 C13         -1.1550    -0.3730     2.5980 ca         1 ZTW      -0.056500
     16 C14         -0.8130     0.0720    -1.7820 ca         1 ZTW      -0.108800
     17 C15         -1.0740     0.1380    -0.3630 cd         1 ZTW      -0.162200
     18 H1          -2.7960     0.3670    -2.6160 ha         1 ZTW       0.116000
     19 H2          -1.9830     0.2010    -4.9750 ha         1 ZTW       0.113000
     20 H3          -0.2290    -0.0920    -6.2960 ho         1 ZTW       0.466000
     21 H4           2.0640    -0.3980    -3.5420 ha         1 ZTW       0.137000
     22 H9           2.0000     0.8500     2.0840 ha         1 ZTW       0.118000
     23 H10          1.9280     0.9730     4.5590 ha         1 ZTW       0.122500
     24 H11         -0.9760    -0.0640     6.3800 ho         1 ZTW       0.466000
     25 H12         -2.0810    -0.6260     4.5330 ha         1 ZTW       0.122500
     26 H13         -2.0190    -0.7690     2.0700 ha         1 ZTW       0.118000
     27 H15         -2.0620     0.3330     0.0440 ha         1 ZTW       0.202000
@<TRIPOS>BOND
     1     1     2 ar  
     2     1    16 ar  
     3     1    18 1   
     4     2     3 ar  
     5     2    19 1   
     6     3     4 1   
     7     3     5 ar  
     8     4    20 1   
     9     5     6 ar  
    10     5    21 1   
    11     6     7 1   
    12     6    16 ar  
    13     7     8 1   
    14     8     9 1   
    15     8    17 2   
    16     9    10 ar  
    17     9    15 ar  
    18    10    11 ar  
    19    10    22 1   
    20    11    12 ar  
    21    11    23 1   
    22    12    13 1   
    23    12    14 ar  
    24    13    24 1   
    25    14    15 ar  
    26    14    25 1   
    27    15    26 1   
    28    16    17 1   
    29    17    27 1   
@<TRIPOS>SUBSTRUCTURE
     1 ZTW         1 TEMP              0 ****  ****    0 ROOT
