@<TRIPOS>MOLECULE
ZTX
   58    62     1     0     0
SMALL
No Charge or Current Charge


@<TRIPOS>ATOM
      1 N1          -0.7630    -0.9420    -0.8640 nb         1 ZTX      -0.232000
      2 C2          -0.8590     0.3650    -0.5790 ca         1 ZTX       0.403900
      3 N3          -1.9840     1.0840    -0.5130 nb         1 ZTX      -0.294000
      4 C4          -3.1430     0.4460    -0.7580 ca         1 ZTX       0.387900
      5 C5          -3.1630    -0.9160    -1.1410 ca         1 ZTX      -0.118400
      6 C6          -1.9180    -1.5830    -1.1160 ca         1 ZTX       0.137900
      7 CAB         -5.5280    -1.6080    -0.4150 c          1 ZTX       0.589600
      8 CAC         -5.7150    -0.4820     0.5810 ca         1 ZTX      -0.158600
      9 CAD         -5.1530     0.7980     0.4130 ca         1 ZTX       0.312000
     10 NAE         -4.3570     1.0840    -0.6720 na         1 ZTX      -0.782100
     11 CAF         -4.7640     2.0800    -1.6860 c3         1 ZTX       0.200100
     12 CAH         -6.2050     1.5740     2.4730 ca         1 ZTX      -0.070000
     13 CAI         -6.7860     0.3100     2.6430 ca         1 ZTX      -0.134000
     14 CAK         -6.5490    -0.7070     1.7030 ca         1 ZTX      -0.043000
     15 CAL         -5.3920     1.8130     1.3550 ca         1 ZTX      -0.157000
     16 NAN          0.3010     1.0910    -0.3480 nu         1 ZTX      -0.926900
     17 CAO          1.6570     0.7660    -0.2030 ca         1 ZTX       0.278000
     18 CAP          2.6200     1.7460    -0.4940 ca         1 ZTX      -0.112000
     19 CAQ          3.9930     1.4680    -0.3530 ca         1 ZTX      -0.129000
     20 CAR          4.4290     0.2070     0.0940 ca         1 ZTX       0.261000
     21 NAS          5.8140    -0.0510     0.2320 nh         1 ZTX      -0.781400
     22 CAT          6.7240     0.1320    -0.9340 c6         1 ZTX       0.195300
     23 CAU          8.1410     0.5410    -0.4720 c6         1 ZTX      -0.098900
     24 CAV          8.7050    -0.4810     0.5390 c6         1 ZTX       0.171300
     25 OAW          9.9920    -0.0560     0.9980 oh         1 ZTX      -0.656000
     26 CAX          7.7330    -0.6310     1.7310 c6         1 ZTX      -0.098900
     27 CAY          6.3170    -1.0200     1.2460 c6         1 ZTX       0.195300
     28 CAZ          3.4620    -0.7700     0.4040 ca         1 ZTX      -0.129000
     29 CBA          2.0890    -0.4930     0.2600 ca         1 ZTX      -0.112000
     30 NBG         -4.3880    -1.6880    -1.2740 n          1 ZTX      -0.292000
     31 CBH         -4.3660    -2.8010    -2.2560 c3         1 ZTX       0.091300
     32 H6          -1.8370    -2.6520    -1.3050 h4         1 ZTX       0.030100
     33 HAF         -4.3080     3.0520    -1.4590 h1         1 ZTX       0.047033
     34 HAFA        -4.4360     1.7560    -2.6830 h1         1 ZTX       0.047033
     35 HAFB        -5.8570     2.1900    -1.6930 h1         1 ZTX       0.047033
     36 HAH         -6.3860     2.3640     3.1990 ha         1 ZTX       0.116000
     37 HAI         -7.4240     0.1170     3.5030 ha         1 ZTX       0.122000
     38 HAK         -7.0130    -1.6790     1.8570 ha         1 ZTX       0.134000
     39 HAL         -4.9420     2.7930     1.2180 ha         1 ZTX       0.122000
     40 HNAN         0.1210     2.0950    -0.3560 hn         1 ZTX       0.509000
     41 HAP          2.3090     2.7280    -0.8400 ha         1 ZTX       0.125500
     42 HAQ          4.7210     2.2420    -0.5800 ha         1 ZTX       0.117000
     43 HAT          6.7850    -0.8040    -1.5080 h1         1 ZTX       0.037700
     44 HATA         6.3390     0.9050    -1.6150 h1         1 ZTX       0.037700
     45 HAU          8.8050     0.6140    -1.3430 hc         1 ZTX       0.058450
     46 HAUA         8.1030     1.5390    -0.0170 hc         1 ZTX       0.058450
     47 HAV          8.7940    -1.4550     0.0360 h1         1 ZTX       0.025700
     48 HOAW        10.3390    -0.7750     1.5710 ho         1 ZTX       0.442000
     49 HAX          8.1020    -1.3930     2.4300 hc         1 ZTX       0.058450
     50 HAXA         7.6780     0.3130     2.2910 hc         1 ZTX       0.058450
     51 HAY          5.6470    -1.0450     2.1180 h1         1 ZTX       0.037700
     52 HAYA         6.3430    -2.0330     0.8180 h1         1 ZTX       0.037700
     53 HAZ          3.7670    -1.7530     0.7510 ha         1 ZTX       0.117000
     54 HBA          1.3710    -1.2600     0.5280 ha         1 ZTX       0.125500
     55 HBH         -4.1840    -3.7500    -1.7370 h1         1 ZTX       0.047700
     56 HBHA        -5.3250    -2.8550    -2.7870 h1         1 ZTX       0.047700
     57 HBHB        -3.5750    -2.6380    -3.0000 h1         1 ZTX       0.047700
     58 OAA         -6.4030    -2.4660    -0.4940 o          1 ZTX      -0.553000
@<TRIPOS>BOND
     1     1     2 ar  
     2     1     6 ar  
     3     2     3 ar  
     4     2    16 1   
     5     3     4 ar  
     6     4     5 ar  
     7     4    10 1   
     8     5     6 ar  
     9     5    30 1   
    10     6    32 1   
    11     7     8 1   
    12     7    30 1   
    13     7    58 2   
    14     8     9 ar  
    15     8    14 ar  
    16     9    10 1   
    17     9    15 ar  
    18    10    11 1   
    19    11    33 1   
    20    11    34 1   
    21    11    35 1   
    22    12    13 ar  
    23    12    15 ar  
    24    12    36 1   
    25    13    14 ar  
    26    13    37 1   
    27    14    38 1   
    28    15    39 1   
    29    16    17 1   
    30    16    40 1   
    31    17    18 ar  
    32    17    29 ar  
    33    18    19 ar  
    34    18    41 1   
    35    19    20 ar  
    36    19    42 1   
    37    20    21 1   
    38    20    28 ar  
    39    21    22 1   
    40    21    27 1   
    41    22    23 1   
    42    22    43 1   
    43    22    44 1   
    44    23    24 1   
    45    23    45 1   
    46    23    46 1   
    47    24    25 1   
    48    24    26 1   
    49    24    47 1   
    50    25    48 1   
    51    26    27 1   
    52    26    49 1   
    53    26    50 1   
    54    27    51 1   
    55    27    52 1   
    56    28    29 ar  
    57    28    53 1   
    58    29    54 1   
    59    30    31 1   
    60    31    55 1   
    61    31    56 1   
    62    31    57 1   
@<TRIPOS>SUBSTRUCTURE
     1 ZTX         1 TEMP              0 ****  ****    0 ROOT
