@<TRIPOS>MOLECULE
ZTX
   58    62     1     0     0
SMALL
abcg2


@<TRIPOS>ATOM
      1 N1          -0.6860    -0.8360    -0.1570 nb         1 ZTX      -0.232000
      2 C2          -0.8210     0.4820    -0.2400 ca         1 ZTX       0.403900
      3 N3          -1.9780     1.1280    -0.4180 nb         1 ZTX      -0.294000
      4 C4          -3.0640     0.4100    -0.5980 ca         1 ZTX       0.387900
      5 C5          -3.0160    -0.9900    -0.6520 ca         1 ZTX      -0.118400
      6 C6          -1.7830    -1.5480    -0.3770 ca         1 ZTX       0.137900
      7 CAB         -5.3460    -1.7110    -0.6380 c          1 ZTX       0.589600
      8 CAC         -5.7010    -0.6310     0.3250 ca         1 ZTX      -0.158600
      9 CAD         -5.2660     0.6960     0.2110 ca         1 ZTX       0.312000
     10 NAE         -4.2780     1.0690    -0.7270 na         1 ZTX      -0.782100
     11 CAF         -4.2210     2.4630    -1.1370 c3         1 ZTX       0.200100
     12 CAH         -6.7640     1.3140     2.0060 ca         1 ZTX      -0.070000
     13 CAI         -7.1720    -0.0050     2.1450 ca         1 ZTX      -0.134000
     14 CAK         -6.6500    -0.9600     1.2930 ca         1 ZTX      -0.043000
     15 CAL         -5.8220     1.6610     1.0540 ca         1 ZTX      -0.157000
     16 NAN          0.2670     1.2840    -0.1320 nu         1 ZTX      -0.926900
     17 CAO          1.6170     0.9340    -0.0170 ca         1 ZTX       0.278000
     18 CAP          2.5610     1.7910    -0.5880 ca         1 ZTX      -0.112000
     19 CAQ          3.9140     1.5400    -0.4770 ca         1 ZTX      -0.129000
     20 CAR          4.3910     0.4060     0.1920 ca         1 ZTX       0.261000
     21 NAS          5.7720     0.1890     0.2860 nh         1 ZTX      -0.781400
     22 CAT          6.4790     0.0810    -0.9870 c6         1 ZTX       0.195300
     23 CAU          7.9800     0.2380    -0.7990 c6         1 ZTX      -0.098900
     24 CAV          8.5010    -0.7800     0.1990 c6         1 ZTX       0.171300
     25 OAW          9.8840    -0.5620     0.3790 oh         1 ZTX      -0.656000
     26 CAX          7.7170    -0.6530     1.4980 c6         1 ZTX      -0.098900
     27 CAY          6.2220    -0.7970     1.2480 c6         1 ZTX       0.195300
     28 CAZ          3.4410    -0.4430     0.7620 ca         1 ZTX      -0.129000
     29 CBA          2.0790    -0.1810     0.6740 ca         1 ZTX      -0.112000
     30 NBG         -4.0850    -1.7720    -1.1250 n          1 ZTX      -0.292000
     31 CBH         -3.7880    -2.7940    -2.1220 c3         1 ZTX       0.091300
     32 H6          -1.6640    -2.6270    -0.3640 h4         1 ZTX       0.030100
     33 HAF         -3.8260     3.1340    -0.3730 h1         1 ZTX       0.047033
     34 HAFA        -3.5880     2.5440    -2.0170 h1         1 ZTX       0.047033
     35 HAFB        -5.2240     2.7850    -1.4080 h1         1 ZTX       0.047033
     36 HAH         -7.1700     2.0820     2.6530 ha         1 ZTX       0.116000
     37 HAI         -7.8990    -0.2820     2.8960 ha         1 ZTX       0.122000
     38 HAK         -6.9890    -1.9850     1.3680 ha         1 ZTX       0.134000
     39 HAL         -5.5100     2.6930     0.9810 ha         1 ZTX       0.122000
     40 HNAN         0.0760     2.2590    -0.3090 hn         1 ZTX       0.509000
     41 HAP          2.2310     2.6780    -1.1170 ha         1 ZTX       0.125500
     42 HAQ          4.6120     2.2460    -0.9110 ha         1 ZTX       0.117000
     43 HAT          6.2660    -0.8910    -1.4600 h1         1 ZTX       0.037700
     44 HATA         6.1190     0.8470    -1.6710 h1         1 ZTX       0.037700
     45 HAU          8.4730     0.1160    -1.7660 hc         1 ZTX       0.058450
     46 HAUA         8.1970     1.2480    -0.4390 hc         1 ZTX       0.058450
     47 HAV          8.3220    -1.7870    -0.2120 h1         1 ZTX       0.025700
     48 HOAW        10.2090    -1.2080     1.0140 ho         1 ZTX       0.442000
     49 HAX          8.0310    -1.4160     2.2150 hc         1 ZTX       0.058450
     50 HAXA         7.9180     0.3250     1.9460 hc         1 ZTX       0.058450
     51 HAY          5.6870    -0.6500     2.1870 h1         1 ZTX       0.037700
     52 HAYA         6.0060    -1.8250     0.9130 h1         1 ZTX       0.037700
     53 HAZ          3.7480    -1.3360     1.2890 ha         1 ZTX       0.117000
     54 HBA          1.3850    -0.8640     1.1400 ha         1 ZTX       0.125500
     55 HBH         -3.6650    -3.7800    -1.6710 h1         1 ZTX       0.047700
     56 HBHA        -4.5880    -2.8490    -2.8570 h1         1 ZTX       0.047700
     57 HBHB        -2.8690    -2.5270    -2.6350 h1         1 ZTX       0.047700
     58 OAA         -6.1930    -2.5240    -0.9780 o          1 ZTX      -0.553000
@<TRIPOS>BOND
     1     1     2 ar  
     2     1     6 ar  
     3     2     3 ar  
     4     2    16 1   
     5     3     4 ar  
     6     4     5 ar  
     7     4    10 1   
     8     5     6 ar  
     9     5    30 1   
    10     6    32 1   
    11     7     8 1   
    12     7    30 1   
    13     7    58 2   
    14     8     9 ar  
    15     8    14 ar  
    16     9    10 1   
    17     9    15 ar  
    18    10    11 1   
    19    11    33 1   
    20    11    34 1   
    21    11    35 1   
    22    12    13 ar  
    23    12    15 ar  
    24    12    36 1   
    25    13    14 ar  
    26    13    37 1   
    27    14    38 1   
    28    15    39 1   
    29    16    17 1   
    30    16    40 1   
    31    17    18 ar  
    32    17    29 ar  
    33    18    19 ar  
    34    18    41 1   
    35    19    20 ar  
    36    19    42 1   
    37    20    21 1   
    38    20    28 ar  
    39    21    22 1   
    40    21    27 1   
    41    22    23 1   
    42    22    43 1   
    43    22    44 1   
    44    23    24 1   
    45    23    45 1   
    46    23    46 1   
    47    24    25 1   
    48    24    26 1   
    49    24    47 1   
    50    25    48 1   
    51    26    27 1   
    52    26    49 1   
    53    26    50 1   
    54    27    51 1   
    55    27    52 1   
    56    28    29 ar  
    57    28    53 1   
    58    29    54 1   
    59    30    31 1   
    60    31    55 1   
    61    31    56 1   
    62    31    57 1   
@<TRIPOS>SUBSTRUCTURE
     1 ZTX         1 TEMP              0 ****  ****    0 ROOT
