@<TRIPOS>MOLECULE
ZTY
   69    72     1     0     0
SMALL
No Charge or Current Charge


@<TRIPOS>ATOM
      1 C10         -0.7960   -12.8320    26.6240 c3         1 ZTY      -0.068400
      2 C15          0.4350   -11.8840    21.8050 ca         1 ZTY      -0.144000
      3 C17          0.6450    -9.9020    20.3900 ca         1 ZTY      -0.113800
      4 C20         -0.5500    -8.3310    18.8870 c          1 ZTY       0.565000
      5 C24          0.3650    -6.7700    20.5840 c2         1 ZTY      -0.049400
      6 C26          0.7590    -9.1010    21.5500 ca         1 ZTY       0.000200
      7 C28         -2.2520    -9.9180    30.6220 ca         1 ZTY      -0.192000
      8 C01         -2.4920   -10.6860    35.5930 c3         1 ZTY      -0.076100
      9 C02         -2.2240    -9.6770    34.4450 c3         1 ZTY      -0.077400
     10 C03         -2.1690   -10.2790    33.0360 ca         1 ZTY      -0.113800
     11 C04         -2.0300   -11.6670    32.8060 ca         1 ZTY      -0.057500
     12 C05         -2.0050   -12.1690    31.4960 ca         1 ZTY      -0.144000
     13 C06         -2.1190   -11.3040    30.4000 ca         1 ZTY       0.147100
     14 O07         -2.0920   -11.8570    29.1360 os         1 ZTY      -0.356100
     15 C09         -2.0970   -11.9910    26.7210 c3         1 ZTY      -0.077400
     16 C11          0.5250   -12.0180    26.5810 c3         1 ZTY      -0.077400
     17 C12          0.6370   -11.0060    25.4190 c3         1 ZTY       0.163600
     18 O13          0.5260   -11.7270    24.1800 os         1 ZTY      -0.356100
     19 C14          0.5680   -11.0940    22.9540 ca         1 ZTY       0.147100
     20 C16          0.4730   -11.2980    20.5300 ca         1 ZTY      -0.057500
     21 C18          0.7100    -9.2120    19.0240 c3         1 ZTY      -0.077400
     22 C19          0.9290   -10.1510    17.8080 c3         1 ZTY      -0.076100
     23 N22         -0.5650    -7.0840    19.5610 n          1 ZTY      -0.335000
     24 C23         -1.6850    -6.1590    19.2790 c3         1 ZTY       0.089300
     25 C25          0.9430    -7.6210    21.4680 ce         1 ZTY      -0.232200
     26 C27          0.7330    -9.7010    22.8220 ca         1 ZTY      -0.192000
     27 C29         -2.2630    -9.4030    31.9300 ca         1 ZTY       0.000200
     28 C30         -2.4070    -7.9280    32.1130 ce         1 ZTY      -0.232200
     29 C31         -1.7850    -7.1620    33.0420 c2         1 ZTY      -0.049400
     30 N32         -0.8430    -7.5870    34.0110 n          1 ZTY      -0.335000
     31 C33          0.3290    -6.7380    34.3190 c3         1 ZTY       0.089300
     32 C34         -0.9380    -8.8470    34.6560 c          1 ZTY       0.565000
     33 O35          0.0140    -9.2990    35.2860 o          1 ZTY      -0.542500
     34 H46         -0.7520   -13.5220    27.4760 hc         1 ZTY       0.055700
     35 H47         -0.8550   -13.4640    25.7290 hc         1 ZTY       0.055700
     36 H52          0.3040   -12.9580    21.9030 ha         1 ZTY       0.129000
     37 H61          0.5580    -5.6980    20.6560 h4         1 ZTY       0.185000
     38 H37         -2.6070   -10.1540    36.5460 hc         1 ZTY       0.046033
     39 H38         -3.4160   -11.2470    35.4080 hc         1 ZTY       0.046033
     40 H36         -1.6660   -11.3990    35.7040 hc         1 ZTY       0.046033
     41 H39         -3.0650    -8.9740    34.4280 hc         1 ZTY       0.071700
     42 H40         -1.9410   -12.3690    33.6310 ha         1 ZTY       0.121500
     43 H41         -1.8990   -13.2380    31.3280 ha         1 ZTY       0.129000
     44 H44         -2.9550   -12.6740    26.7430 hc         1 ZTY       0.053950
     45 H45         -2.2110   -11.3910    25.8110 hc         1 ZTY       0.053950
     46 H48          0.6530   -11.4810    27.5280 hc         1 ZTY       0.053950
     47 H49          1.3670   -12.7180    26.5150 hc         1 ZTY       0.053950
     48 H51         -0.1570   -10.2530    25.5060 h1         1 ZTY       0.033700
     49 H50          1.6060   -10.4930    25.4800 h1         1 ZTY       0.033700
     50 H53          0.3690   -11.9440    19.6620 ha         1 ZTY       0.121500
     51 H54          1.5740    -8.5400    19.0770 hc         1 ZTY       0.071700
     52 H57          1.0480    -9.5610    16.8910 hc         1 ZTY       0.046033
     53 H56          1.8360   -10.7520    17.9410 hc         1 ZTY       0.046033
     54 H55          0.0780   -10.8280    17.6630 hc         1 ZTY       0.046033
     55 H59         -1.5270    -5.2000    19.7880 h1         1 ZTY       0.047700
     56 H58         -1.7550    -5.9780    18.1990 h1         1 ZTY       0.047700
     57 H60         -2.6260    -6.5980    19.6340 h1         1 ZTY       0.047700
     58 H62          1.5950    -7.2120    22.2410 ha         1 ZTY       0.187000
     59 H63          0.8340    -9.0670    23.6980 ha         1 ZTY       0.115000
     60 H65         -3.0620    -7.4480    31.3840 ha         1 ZTY       0.187000
     61 H66         -1.9410    -6.0810    33.0550 h4         1 ZTY       0.185000
     62 H67          0.3840    -6.5570    35.4000 h1         1 ZTY       0.047700
     63 H68          1.2470    -7.2410    33.9890 h1         1 ZTY       0.047700
     64 H69          0.2490    -5.7740    33.8010 h1         1 ZTY       0.047700
     65 O21         -1.5380    -8.7220    18.2720 o          1 ZTY      -0.542500
     66 C08         -2.1860   -11.0540    27.9460 c3         1 ZTY       0.163600
     67 H64         -2.3370    -9.2260    29.7900 ha         1 ZTY       0.115000
     68 H43         -3.1420   -10.5160    27.9190 h1         1 ZTY       0.033700
     69 H42         -1.3740   -10.3170    27.9070 h1         1 ZTY       0.033700
@<TRIPOS>BOND
     1     1    15 1   
     2     1    16 1   
     3     1    34 1   
     4     1    35 1   
     5     2    19 ar  
     6     2    20 ar  
     7     2    36 1   
     8     3     6 ar  
     9     3    20 ar  
    10     3    21 1   
    11     4    21 1   
    12     4    23 1   
    13     4    65 2   
    14     5    23 1   
    15     5    25 2   
    16     5    37 1   
    17     6    25 1   
    18     6    26 ar  
    19     7    13 ar  
    20     7    27 ar  
    21     7    67 1   
    22     8     9 1   
    23     8    38 1   
    24     8    39 1   
    25     8    40 1   
    26     9    10 1   
    27     9    32 1   
    28     9    41 1   
    29    10    11 ar  
    30    10    27 ar  
    31    11    12 ar  
    32    11    42 1   
    33    12    13 ar  
    34    12    43 1   
    35    13    14 1   
    36    14    66 1   
    37    15    44 1   
    38    15    45 1   
    39    15    66 1   
    40    16    17 1   
    41    16    46 1   
    42    16    47 1   
    43    17    18 1   
    44    17    48 1   
    45    17    49 1   
    46    18    19 1   
    47    19    26 ar  
    48    20    50 1   
    49    21    22 1   
    50    21    51 1   
    51    22    52 1   
    52    22    53 1   
    53    22    54 1   
    54    23    24 1   
    55    24    55 1   
    56    24    56 1   
    57    24    57 1   
    58    25    58 1   
    59    26    59 1   
    60    27    28 1   
    61    28    29 2   
    62    28    60 1   
    63    29    30 1   
    64    29    61 1   
    65    30    31 1   
    66    30    32 1   
    67    31    62 1   
    68    31    63 1   
    69    31    64 1   
    70    32    33 2   
    71    66    68 1   
    72    66    69 1   
@<TRIPOS>SUBSTRUCTURE
     1 ZTY         1 TEMP              0 ****  ****    0 ROOT
