@<TRIPOS>MOLECULE
ZTY
   69    72     1     0     0
SMALL
abcg2


@<TRIPOS>ATOM
      1 C10         -0.7940   -12.6830    26.6220 c3         1 ZTY      -0.068400
      2 C15          0.4420   -11.8400    21.8810 ca         1 ZTY      -0.144000
      3 C17          0.6040    -9.8870    20.4560 ca         1 ZTY      -0.113800
      4 C20         -0.5380    -8.4460    18.8150 c          1 ZTY       0.565000
      5 C24          0.1230    -6.8580    20.5740 c2         1 ZTY      -0.049400
      6 C26          0.6780    -9.0770    21.5990 ca         1 ZTY       0.000200
      7 C28         -2.1890    -9.8630    30.5610 ca         1 ZTY      -0.192000
      8 C01         -2.6080   -10.7080    35.4410 c3         1 ZTY      -0.076100
      9 C02         -2.2470    -9.6940    34.3640 c3         1 ZTY      -0.077400
     10 C03         -2.1300   -10.2560    32.9610 ca         1 ZTY      -0.113800
     11 C04         -2.0430   -11.6260    32.7010 ca         1 ZTY      -0.057500
     12 C05         -2.0310   -12.1130    31.4070 ca         1 ZTY      -0.144000
     13 C06         -2.1180   -11.2300    30.3240 ca         1 ZTY       0.147100
     14 O07         -2.1230   -11.8000    29.0900 os         1 ZTY      -0.356100
     15 C09         -2.0710   -11.8400    26.7070 c3         1 ZTY      -0.077400
     16 C11          0.5140   -11.8850    26.5900 c3         1 ZTY      -0.077400
     17 C12          0.6370   -10.9260    25.4230 c3         1 ZTY       0.163600
     18 O13          0.5610   -11.6900    24.2130 os         1 ZTY      -0.356100
     19 C14          0.5700   -11.0370    23.0200 ca         1 ZTY       0.147100
     20 C16          0.4650   -11.2670    20.6220 ca         1 ZTY      -0.057500
     21 C18          0.7340    -9.2360    19.0930 c3         1 ZTY      -0.077400
     22 C19          1.0480   -10.1890    17.9470 c3         1 ZTY      -0.076100
     23 N22         -0.6720    -7.2640    19.5000 n          1 ZTY      -0.335000
     24 C23         -1.7800    -6.3820    19.1240 c3         1 ZTY       0.089300
     25 C25          0.7240    -7.6260    21.4990 ce         1 ZTY      -0.232200
     26 C27          0.6920    -9.6620    22.8770 ca         1 ZTY      -0.192000
     27 C29         -2.1630    -9.3670    31.8750 ca         1 ZTY       0.000200
     28 C30         -2.1560    -7.9260    32.0740 ce         1 ZTY      -0.232200
     29 C31         -1.5360    -7.2450    33.0540 c2         1 ZTY      -0.049400
     30 N32         -0.7660    -7.7540    34.1030 n          1 ZTY      -0.335000
     31 C33          0.3710    -6.9400    34.5430 c3         1 ZTY       0.089300
     32 C34         -0.9470    -8.9750    34.7020 c          1 ZTY       0.565000
     33 O35         -0.1140    -9.4280    35.4810 o          1 ZTY      -0.542500
     34 H46         -0.7600   -13.3650    27.4740 hc         1 ZTY       0.055700
     35 H47         -0.8530   -13.3070    25.7270 hc         1 ZTY       0.055700
     36 H52          0.3460   -12.9120    22.0010 ha         1 ZTY       0.129000
     37 H61          0.1740    -5.7810    20.6750 h4         1 ZTY       0.185000
     38 H37         -2.7380   -10.2050    36.3990 hc         1 ZTY       0.046033
     39 H38         -3.5440   -11.2070    35.1840 hc         1 ZTY       0.046033
     40 H36         -1.8350   -11.4650    35.5660 hc         1 ZTY       0.046033
     41 H39         -3.0260    -8.9260    34.3310 hc         1 ZTY       0.071700
     42 H40         -2.0070   -12.3290    33.5210 ha         1 ZTY       0.121500
     43 H41         -1.9770   -13.1770    31.2140 ha         1 ZTY       0.129000
     44 H44         -2.9380   -12.5050    26.6930 hc         1 ZTY       0.053950
     45 H45         -2.1630   -11.1940    25.8290 hc         1 ZTY       0.053950
     46 H48          0.6270   -11.3000    27.5060 hc         1 ZTY       0.053950
     47 H49          1.3570   -12.5810    26.5630 hc         1 ZTY       0.053950
     48 H51         -0.1640   -10.1820    25.4320 h1         1 ZTY       0.033700
     49 H50          1.5930   -10.3950    25.4590 h1         1 ZTY       0.033700
     50 H53          0.3950   -11.9110    19.7570 ha         1 ZTY       0.121500
     51 H54          1.5430    -8.5020    19.1700 hc         1 ZTY       0.071700
     52 H57          1.1920    -9.6270    17.0240 hc         1 ZTY       0.046033
     53 H56          1.9640   -10.7400    18.1610 hc         1 ZTY       0.046033
     54 H55          0.2430   -10.9040    17.7800 hc         1 ZTY       0.046033
     55 H59         -1.5370    -5.3680    19.4350 h1         1 ZTY       0.047700
     56 H58         -1.9220    -6.4120    18.0470 h1         1 ZTY       0.047700
     57 H60         -2.7060    -6.6910    19.6120 h1         1 ZTY       0.047700
     58 H62          1.2280    -7.0940    22.2970 ha         1 ZTY       0.187000
     59 H63          0.7770    -9.0180    23.7400 ha         1 ZTY       0.115000
     60 H65         -2.6340    -7.3220    31.3110 ha         1 ZTY       0.187000
     61 H66         -1.5470    -6.1630    33.0260 h4         1 ZTY       0.185000
     62 H67          0.5130    -7.0600    35.6130 h1         1 ZTY       0.047700
     63 H68          1.2860    -7.2400    34.0280 h1         1 ZTY       0.047700
     64 H69          0.1610    -5.8980    34.3130 h1         1 ZTY       0.047700
     65 O21         -1.3890    -8.8120    18.0090 o          1 ZTY      -0.542500
     66 C08         -2.1610   -10.9540    27.9340 c3         1 ZTY       0.163600
     67 H64         -2.2410    -9.1590    29.7430 ha         1 ZTY       0.115000
     68 H43         -3.0940   -10.3830    27.9300 h1         1 ZTY       0.033700
     69 H42         -1.3290   -10.2450    27.9760 h1         1 ZTY       0.033700
@<TRIPOS>BOND
     1     1    15 1   
     2     1    16 1   
     3     1    34 1   
     4     1    35 1   
     5     2    19 ar  
     6     2    20 ar  
     7     2    36 1   
     8     3     6 ar  
     9     3    20 ar  
    10     3    21 1   
    11     4    21 1   
    12     4    23 1   
    13     4    65 2   
    14     5    23 1   
    15     5    25 2   
    16     5    37 1   
    17     6    25 1   
    18     6    26 ar  
    19     7    13 ar  
    20     7    27 ar  
    21     7    67 1   
    22     8     9 1   
    23     8    38 1   
    24     8    39 1   
    25     8    40 1   
    26     9    10 1   
    27     9    32 1   
    28     9    41 1   
    29    10    11 ar  
    30    10    27 ar  
    31    11    12 ar  
    32    11    42 1   
    33    12    13 ar  
    34    12    43 1   
    35    13    14 1   
    36    14    66 1   
    37    15    44 1   
    38    15    45 1   
    39    15    66 1   
    40    16    17 1   
    41    16    46 1   
    42    16    47 1   
    43    17    18 1   
    44    17    48 1   
    45    17    49 1   
    46    18    19 1   
    47    19    26 ar  
    48    20    50 1   
    49    21    22 1   
    50    21    51 1   
    51    22    52 1   
    52    22    53 1   
    53    22    54 1   
    54    23    24 1   
    55    24    55 1   
    56    24    56 1   
    57    24    57 1   
    58    25    58 1   
    59    26    59 1   
    60    27    28 1   
    61    28    29 2   
    62    28    60 1   
    63    29    30 1   
    64    29    61 1   
    65    30    31 1   
    66    30    32 1   
    67    31    62 1   
    68    31    63 1   
    69    31    64 1   
    70    32    33 2   
    71    66    68 1   
    72    66    69 1   
@<TRIPOS>SUBSTRUCTURE
     1 ZTY         1 TEMP              0 ****  ****    0 ROOT
