@<TRIPOS>MOLECULE
ZU0
   28    27     1     0     0
SMALL
No Charge or Current Charge


@<TRIPOS>ATOM
      1 N           18.3840     3.2140    20.8830 n8         1 ZU0      -0.867800
      2 CA          18.0320     2.2780    22.0240 c3         1 ZU0       0.019500
      3 C           17.1410     1.0170    21.6540 c          1 ZU0       0.930600
      4 O           15.9340     1.1630    21.4780 o          1 ZU0      -0.832300
      5 CB          17.4230     3.0460    23.2420 c3         1 ZU0       0.161100
      6 O3          18.3250     4.1400    23.5770 os         1 ZU0      -0.445600
      7 C4          17.2840     2.1500    24.5000 c3         1 ZU0      -0.099100
      8 OXT         17.6970    -0.0670    21.5020 o          1 ZU0      -0.832300
      9 C5          17.7920     5.4650    23.8550 c3         1 ZU0       0.175800
     10 C6          16.7960     5.4140    25.0420 c3         1 ZU0      -0.100767
     11 C7          17.1280     6.0310    22.5720 c3         1 ZU0      -0.100767
     12 C8          19.0260     6.3160    24.2330 c3         1 ZU0      -0.100767
     13 H           18.9100     4.0020    21.2730 hn         1 ZU0       0.313800
     14 H2          19.0360     2.7450    20.2470 hn         1 ZU0       0.313800
     15 HA          18.9940     1.8760    22.3690 h1         1 ZU0       0.010700
     16 H3          16.4270     3.4110    22.9580 h1         1 ZU0       0.064700
     17 H4          16.8560     2.6990    25.3440 hc         1 ZU0       0.030700
     18 H5          16.6250     1.2980    24.3050 hc         1 ZU0       0.030700
     19 H6          18.2620     1.7600    24.8070 hc         1 ZU0       0.030700
     20 H7          16.4830     6.4280    25.3190 hc         1 ZU0       0.033033
     21 H8          15.8900     4.8520    24.7860 hc         1 ZU0       0.033033
     22 H9          17.2590     4.9570    25.9240 hc         1 ZU0       0.033033
     23 H10         16.8540     7.0830    22.7180 hc         1 ZU0       0.033033
     24 H11         17.8160     5.9800    21.7200 hc         1 ZU0       0.033033
     25 H12         16.2120     5.4890    22.3120 hc         1 ZU0       0.033033
     26 H13         18.7350     7.3510    24.4480 hc         1 ZU0       0.033033
     27 H14         19.5220     5.9110    25.1230 hc         1 ZU0       0.033033
     28 H15         19.7540     6.3310    23.4130 hc         1 ZU0       0.033033
@<TRIPOS>BOND
     1     1     2 1   
     2     1    13 1   
     3     1    14 1   
     4     2     3 1   
     5     2     5 1   
     6     2    15 1   
     7     3     4 1   
     8     3     8 1   
     9     5     6 1   
    10     5     7 1   
    11     5    16 1   
    12     6     9 1   
    13     7    17 1   
    14     7    18 1   
    15     7    19 1   
    16     9    10 1   
    17     9    11 1   
    18     9    12 1   
    19    10    20 1   
    20    10    21 1   
    21    10    22 1   
    22    11    23 1   
    23    11    24 1   
    24    11    25 1   
    25    12    26 1   
    26    12    27 1   
    27    12    28 1   
@<TRIPOS>SUBSTRUCTURE
     1 ZU0         1 TEMP              0 ****  ****    0 ROOT
