@<TRIPOS>MOLECULE
ZU0
   28    27     1     0     0
SMALL
bcc


@<TRIPOS>ATOM
      1 N           18.2010     3.1880    20.9390 n8         1 ZU0      -0.867800
      2 CA          18.0830     2.2950    22.0890 c3         1 ZU0       0.019500
      3 C           17.1940     1.0860    21.6980 c          1 ZU0       0.930600
      4 O           15.9860     1.3220    21.4930 o          1 ZU0      -0.832300
      5 CB          17.4860     3.0540    23.2740 c3         1 ZU0       0.161100
      6 O3          18.3550     4.1370    23.5800 os         1 ZU0      -0.445600
      7 C4          17.3400     2.1490    24.4910 c3         1 ZU0      -0.099100
      8 OXT         17.7650    -0.0190    21.6050 o          1 ZU0      -0.832300
      9 C5          17.8060     5.4270    23.8370 c3         1 ZU0       0.175800
     10 C6          16.7600     5.4030    24.9520 c3         1 ZU0      -0.100767
     11 C7          17.1950     6.0360    22.5750 c3         1 ZU0      -0.100767
     12 C8          18.9990     6.2680    24.2810 c3         1 ZU0      -0.100767
     13 H           18.8290     3.9450    21.1780 hn         1 ZU0       0.313800
     14 H2          18.6490     2.6950    20.1760 hn         1 ZU0       0.313800
     15 HA          19.0610     1.9020    22.4120 h1         1 ZU0       0.010700
     16 H3          16.4980     3.4160    22.9710 h1         1 ZU0       0.064700
     17 H4          16.9710     2.7000    25.3550 hc         1 ZU0       0.030700
     18 H5          16.6320     1.3430    24.2970 hc         1 ZU0       0.030700
     19 H6          18.2970     1.6990    24.7630 hc         1 ZU0       0.030700
     20 H7          16.4240     6.4190    25.1660 hc         1 ZU0       0.033033
     21 H8          15.8780     4.8230    24.6760 hc         1 ZU0       0.033033
     22 H9          17.1690     4.9880    25.8750 hc         1 ZU0       0.033033
     23 H10         16.8490     7.0510    22.7790 hc         1 ZU0       0.033033
     24 H11         17.9280     6.0900    21.7680 hc         1 ZU0       0.033033
     25 H12         16.3370     5.4660    22.2170 hc         1 ZU0       0.033033
     26 H13         18.6860     7.2910    24.4930 hc         1 ZU0       0.033033
     27 H14         19.4520     5.8620    25.1870 hc         1 ZU0       0.033033
     28 H15         19.7650     6.3070    23.5040 hc         1 ZU0       0.033033
@<TRIPOS>BOND
     1     1     2 1   
     2     1    13 1   
     3     1    14 1   
     4     2     3 1   
     5     2     5 1   
     6     2    15 1   
     7     3     4 1   
     8     3     8 1   
     9     5     6 1   
    10     5     7 1   
    11     5    16 1   
    12     6     9 1   
    13     7    17 1   
    14     7    18 1   
    15     7    19 1   
    16     9    10 1   
    17     9    11 1   
    18     9    12 1   
    19    10    20 1   
    20    10    21 1   
    21    10    22 1   
    22    11    23 1   
    23    11    24 1   
    24    11    25 1   
    25    12    26 1   
    26    12    27 1   
    27    12    28 1   
@<TRIPOS>SUBSTRUCTURE
     1 ZU0         1 TEMP              0 ****  ****    0 ROOT
