@<TRIPOS>MOLECULE
ZU3
   93    94     1     0     0
SMALL
bcc


@<TRIPOS>ATOM
      1 C17          3.0610    -0.6320     0.4180 c          1 ZU3       0.756100
      2 O19          2.6600    -0.8750     1.5380 o          1 ZU3      -0.611000
      3 O15          4.1320    -1.2040    -0.1400 os         1 ZU3      -0.422900
      4 C13          4.8300    -2.1740     0.6510 c3         1 ZU3       0.207700
      5 C4           6.0170    -2.6170    -0.1480 ca         1 ZU3      -0.100300
      6 C6           5.9400    -3.7380    -0.9690 ca         1 ZU3      -0.101500
      7 C8           7.0350    -4.1350    -1.7250 ca         1 ZU3      -0.134000
      8 C10          8.2180    -3.4100    -1.6690 ca         1 ZU3      -0.116000
      9 C1           8.3030    -2.2890    -0.8520 ca         1 ZU3      -0.134000
     10 C2           7.2070    -1.8960    -0.0970 ca         1 ZU3      -0.101500
     11 N21          2.4900     0.2540    -0.4170 ns         1 ZU3      -0.554900
     12 C23          1.2710     0.9230    -0.0500 c3         1 ZU3       0.035700
     13 C25          0.8820     1.9320    -1.1350 c3         1 ZU3       0.084000
     14 N27          1.8190     3.0220    -1.2440 ns         1 ZU3      -0.571900
     15 C29          2.8760     3.0290    -2.0770 c          1 ZU3       0.675100
     16 C31          0.1300    -0.0840     0.1020 c          1 ZU3       0.670100
     17 O35         -0.0390    -0.9610    -0.7340 o          1 ZU3      -0.632100
     18 O43          3.1190     2.0870    -2.8220 o          1 ZU3      -0.612100
     19 C45          3.7560     4.2810    -2.0190 c3         1 ZU3      -0.123000
     20 C76          4.8370     4.1980    -3.0940 c3         1 ZU3      -0.082100
     21 C78          2.9120     5.5400    -2.2550 c3         1 ZU3      -0.082100
     22 C80          4.4210     4.3460    -0.6360 c3         1 ZU3      -0.082100
     23 N33         -0.6460     0.1060     1.1730 ns         1 ZU3      -0.535900
     24 C37         -1.8300    -0.6660     1.4650 c3         1 ZU3       0.030700
     25 C39         -3.0560     0.2300     1.2880 c          1 ZU3       0.661100
     26 O47         -3.1080     1.3270     1.8200 o          1 ZU3      -0.600100
     27 C41         -1.7970    -1.2260     2.8880 c3         1 ZU3      -0.082400
     28 C51         -0.5760    -2.0920     3.2040 c3         1 ZU3      -0.062700
     29 C53         -0.6580    -2.5760     4.6490 c3         1 ZU3      -0.088100
     30 C55         -0.4340    -3.2720     2.2480 c3         1 ZU3      -0.088100
     31 N49         -4.0370    -0.3040     0.5480 ns         1 ZU3      -0.570900
     32 C57         -5.2450     0.3880     0.1360 c3         1 ZU3       0.111700
     33 C59         -5.5190     0.0630    -1.3330 c3         1 ZU3      -0.079400
     34 C61         -4.6300     0.7450    -2.3890 c5         1 ZU3      -0.154700
     35 C63         -6.4490    -0.0020     0.9970 c3         1 ZU3      -0.076400
     36 C65         -3.1550     0.7850    -2.0070 c          1 ZU3       0.706500
     37 O66         -2.6080     1.6240    -1.3110 o          1 ZU3      -0.638500
     38 N69         -2.5600    -0.2680    -2.5950 ns         1 ZU3      -0.584900
     39 C71         -3.4290    -1.0450    -3.4520 c5         1 ZU3       0.102000
     40 C73         -4.6000    -0.0810    -3.6780 c5         1 ZU3      -0.095400
     41 C82         -6.2370     0.2630     2.4760 c3         1 ZU3      -0.182400
     42 C84         -7.4350    -0.0150     3.3450 c          1 ZU3       0.571100
     43 C86         -7.3020     0.4030     4.7850 c3         1 ZU3      -0.202100
     44 O88         -8.4450    -0.5270     2.9160 o          1 ZU3      -0.528100
     45 H13          4.1730    -3.0180     0.8740 h1         1 ZU3       0.054700
     46 H13A         5.1450    -1.7300     1.5980 h1         1 ZU3       0.054700
     47 H6           5.0210    -4.3090    -1.0130 ha         1 ZU3       0.132500
     48 H8           6.9650    -5.0110    -2.3570 ha         1 ZU3       0.131500
     49 H10          9.0720    -3.7190    -2.2570 ha         1 ZU3       0.130000
     50 H1           9.2250    -1.7240    -0.8000 ha         1 ZU3       0.131500
     51 H2           7.2790    -1.0240     0.5420 ha         1 ZU3       0.132500
     52 HN21         2.8390     0.3590    -1.3590 hn         1 ZU3       0.362500
     53 H23          1.4160     1.4700     0.8870 h1         1 ZU3       0.066700
     54 H25          0.7940     1.4270    -2.0970 h1         1 ZU3       0.086200
     55 H25A        -0.1000     2.3370    -0.9010 h1         1 ZU3       0.086200
     56 HN27         1.6790     3.8010    -0.6210 hn         1 ZU3       0.316500
     57 H76          4.4090     4.1580    -4.0960 hc         1 ZU3       0.041144
     58 H76A         5.4680     5.0860    -3.0370 hc         1 ZU3       0.041144
     59 H76B         5.4770     3.3260    -2.9640 hc         1 ZU3       0.041144
     60 H78          2.1580     5.7000    -1.4820 hc         1 ZU3       0.041144
     61 H78A         3.5570     6.4190    -2.2610 hc         1 ZU3       0.041144
     62 H78B         2.3990     5.5000    -3.2180 hc         1 ZU3       0.041144
     63 H80          5.0110     3.4500    -0.4360 hc         1 ZU3       0.041144
     64 H80A         5.0950     5.2040    -0.5910 hc         1 ZU3       0.041144
     65 H80B         3.6970     4.4580     0.1720 hc         1 ZU3       0.041144
     66 HN33        -0.4180     0.8550     1.8080 hn         1 ZU3       0.331500
     67 H37         -1.8580    -1.4890     0.7510 h1         1 ZU3       0.083700
     68 H41         -1.8440    -0.3960     3.6000 hc         1 ZU3       0.049700
     69 H41A        -2.7090    -1.8140     3.0370 hc         1 ZU3       0.049700
     70 H51          0.3190    -1.4710     3.1040 hc         1 ZU3       0.070700
     71 H53         -1.5140    -3.2410     4.7930 hc         1 ZU3       0.033533
     72 H53A         0.2390    -3.1300     4.9290 hc         1 ZU3       0.033533
     73 H53B        -0.7640    -1.7430     5.3460 hc         1 ZU3       0.033533
     74 H55         -1.3310    -3.8960     2.2600 hc         1 ZU3       0.033533
     75 H55A        -0.2570    -2.9510     1.2220 hc         1 ZU3       0.033533
     76 H55B         0.4090    -3.9010     2.5370 hc         1 ZU3       0.033533
     77 HN49        -3.8890    -1.2270     0.1710 hn         1 ZU3       0.310500
     78 H57         -5.0600     1.4590     0.2510 h1         1 ZU3       0.091700
     79 H59         -5.4680    -1.0250    -1.4520 hc         1 ZU3       0.048200
     80 H59A        -6.5510     0.3330    -1.5650 hc         1 ZU3       0.048200
     81 H61         -4.9860     1.7640    -2.5500 hc         1 ZU3       0.084700
     82 H63         -7.3130     0.5630     0.6390 hc         1 ZU3       0.053200
     83 H63A        -6.6810    -1.0590     0.8350 hc         1 ZU3       0.053200
     84 HN69        -1.6190    -0.5450    -2.3570 hn         1 ZU3       0.351500
     85 H71         -2.9280    -1.3130    -4.3820 h1         1 ZU3       0.044700
     86 H71A        -3.7470    -1.9740    -2.9680 h1         1 ZU3       0.044700
     87 H73         -5.5360    -0.6030    -3.8770 hc         1 ZU3       0.058700
     88 H73A        -4.3880     0.5620    -4.5340 hc         1 ZU3       0.058700
     89 H82         -5.4180    -0.3490     2.8690 hc         1 ZU3       0.071200
     90 H82A        -5.9180     1.2960     2.6520 hc         1 ZU3       0.071200
     91 H86         -7.4340     1.4850     4.8520 hc         1 ZU3       0.060700
     92 H86A        -8.0550    -0.0730     5.4100 hc         1 ZU3       0.060700
     93 H86B        -6.3080     0.1820     5.1750 hc         1 ZU3       0.060700
@<TRIPOS>BOND
     1     1     2 2   
     2     1     3 1   
     3     1    11 1   
     4     3     4 1   
     5     4     5 1   
     6     4    45 1   
     7     4    46 1   
     8     5     6 ar  
     9     5    10 ar  
    10     6     7 ar  
    11     6    47 1   
    12     7     8 ar  
    13     7    48 1   
    14     8     9 ar  
    15     8    49 1   
    16     9    10 ar  
    17     9    50 1   
    18    10    51 1   
    19    11    12 1   
    20    11    52 1   
    21    12    13 1   
    22    12    16 1   
    23    12    53 1   
    24    13    14 1   
    25    13    54 1   
    26    13    55 1   
    27    14    15 1   
    28    14    56 1   
    29    15    18 2   
    30    15    19 1   
    31    16    17 2   
    32    16    23 1   
    33    19    20 1   
    34    19    21 1   
    35    19    22 1   
    36    20    57 1   
    37    20    58 1   
    38    20    59 1   
    39    21    60 1   
    40    21    61 1   
    41    21    62 1   
    42    22    63 1   
    43    22    64 1   
    44    22    65 1   
    45    23    24 1   
    46    23    66 1   
    47    24    25 1   
    48    24    27 1   
    49    24    67 1   
    50    25    26 2   
    51    25    31 1   
    52    27    28 1   
    53    27    68 1   
    54    27    69 1   
    55    28    29 1   
    56    28    30 1   
    57    28    70 1   
    58    29    71 1   
    59    29    72 1   
    60    29    73 1   
    61    30    74 1   
    62    30    75 1   
    63    30    76 1   
    64    31    32 1   
    65    31    77 1   
    66    32    33 1   
    67    32    35 1   
    68    32    78 1   
    69    33    34 1   
    70    33    79 1   
    71    33    80 1   
    72    34    36 1   
    73    34    40 1   
    74    34    81 1   
    75    35    41 1   
    76    35    82 1   
    77    35    83 1   
    78    36    37 2   
    79    36    38 1   
    80    38    39 1   
    81    38    84 1   
    82    39    40 1   
    83    39    85 1   
    84    39    86 1   
    85    40    87 1   
    86    40    88 1   
    87    41    42 1   
    88    41    89 1   
    89    41    90 1   
    90    42    43 1   
    91    42    44 2   
    92    43    91 1   
    93    43    92 1   
    94    43    93 1   
@<TRIPOS>SUBSTRUCTURE
     1 ZU3         1 TEMP              0 ****  ****    0 ROOT
