@<TRIPOS>MOLECULE
ZU3
   93    94     1     0     0
SMALL
No Charge or Current Charge


@<TRIPOS>ATOM
      1 C17          3.6020    -0.3740     0.8550 c          1 ZU3       0.640100
      2 O19          3.3040    -0.4320     2.0370 o          1 ZU3      -0.562000
      3 O15          4.8010    -0.7110     0.3130 os         1 ZU3      -0.446100
      4 C13          5.8220    -1.1910     1.2010 c3         1 ZU3       0.230900
      5 C4           7.0890    -1.4170     0.3880 ca         1 ZU3      -0.100300
      6 C6           7.4210    -2.7050    -0.0760 ca         1 ZU3      -0.083500
      7 C8           8.5910    -2.9070    -0.8300 ca         1 ZU3      -0.116000
      8 C10          9.4340    -1.8220    -1.1270 ca         1 ZU3      -0.098000
      9 C1           9.1060    -0.5350    -0.6690 ca         1 ZU3      -0.116000
     10 C2           7.9380    -0.3320     0.0860 ca         1 ZU3      -0.083500
     11 N21          2.8090     0.1320    -0.1290 ns         1 ZU3      -0.487900
     12 C23          1.5150     0.8120     0.0920 c3         1 ZU3       0.035700
     13 C25          1.2840     1.9120    -0.9780 c3         1 ZU3       0.084000
     14 N27          2.4270     2.8340    -1.1040 ns         1 ZU3      -0.504900
     15 C29          3.5670     2.5750    -1.8410 c          1 ZU3       0.608100
     16 C31          0.3370    -0.2030     0.0980 c          1 ZU3       0.603100
     17 O35          0.4130    -1.3290    -0.3780 o          1 ZU3      -0.632100
     18 O43          3.6580     1.5550    -2.5110 o          1 ZU3      -0.612100
     19 C45          4.7270     3.6180    -1.7550 c3         1 ZU3      -0.123000
     20 C76          5.0160     4.1610    -3.1810 c3         1 ZU3      -0.082100
     21 C78          4.3930     4.8210    -0.8220 c3         1 ZU3      -0.082100
     22 C80          5.9900     2.9000    -1.2020 c3         1 ZU3      -0.082100
     23 N33         -0.8210     0.2660     0.6850 ns         1 ZU3      -0.468900
     24 C37         -2.0880    -0.4920     0.8180 c3         1 ZU3       0.030700
     25 C39         -3.2940     0.4390     0.5040 c          1 ZU3       0.594100
     26 O47         -3.1960     1.6590     0.4360 o          1 ZU3      -0.600100
     27 C41         -2.2220    -1.1080     2.2420 c3         1 ZU3      -0.082400
     28 C51         -1.2060    -2.2280     2.6000 c3         1 ZU3      -0.062700
     29 C53         -1.2820    -2.5790     4.1030 c3         1 ZU3      -0.088100
     30 C55         -1.3960    -3.4990     1.7370 c3         1 ZU3      -0.088100
     31 N49         -4.4960    -0.2130     0.3200 ns         1 ZU3      -0.503900
     32 C57         -5.7770     0.4430     0.0520 c3         1 ZU3       0.111700
     33 C59         -6.4800    -0.1800    -1.1820 c3         1 ZU3      -0.079400
     34 C61         -5.7640     0.0030    -2.5590 c5         1 ZU3      -0.154700
     35 C63         -6.6740     0.3960     1.3140 c3         1 ZU3      -0.076400
     36 C65         -4.5280    -0.8960    -2.7110 c          1 ZU3       0.564000
     37 O66         -3.3540    -0.6540    -2.4830 o          1 ZU3      -0.563000
     38 N69         -4.9360    -1.9830    -3.4340 ns         1 ZU3      -0.517900
     39 C71         -6.3450    -1.9670    -3.8230 c5         1 ZU3       0.102000
     40 C73         -6.6390    -0.4420    -3.7650 c5         1 ZU3      -0.095400
     41 C82         -6.0550     1.0750     2.5650 c3         1 ZU3      -0.182400
     42 C84         -7.0220     1.0490     3.7550 c          1 ZU3       0.571100
     43 C86         -6.8310    -0.0800     4.7670 c3         1 ZU3      -0.202100
     44 O88         -7.9060     1.8850     3.8850 o          1 ZU3      -0.528100
     45 H13          5.5110    -2.1300     1.6790 h1         1 ZU3       0.054700
     46 H13A         6.0260    -0.4580     1.9930 h1         1 ZU3       0.054700
     47 H6           6.7730    -3.5500     0.1450 ha         1 ZU3       0.114500
     48 H8           8.8430    -3.9040    -1.1860 ha         1 ZU3       0.113500
     49 H10         10.3380    -1.9790    -1.7110 ha         1 ZU3       0.112000
     50 H1           9.7570     0.3060    -0.8990 ha         1 ZU3       0.113500
     51 H2           7.6900     0.6680     0.4350 ha         1 ZU3       0.114500
     52 HN21         3.2300     0.1760    -1.0520 hn         1 ZU3       0.362500
     53 H23          1.5410     1.2910     1.0790 h1         1 ZU3       0.066700
     54 H25          1.0980     1.4380    -1.9520 h1         1 ZU3       0.086200
     55 H25A         0.3870     2.4930    -0.7210 h1         1 ZU3       0.086200
     56 HN27         2.4140     3.6970    -0.5740 hn         1 ZU3       0.316500
     57 H76          4.1290     4.6530    -3.5970 hc         1 ZU3       0.041144
     58 H76A         5.8340     4.8920    -3.1650 hc         1 ZU3       0.041144
     59 H76B         5.3040     3.3500    -3.8620 hc         1 ZU3       0.041144
     60 H78          4.2000     4.4870     0.2060 hc         1 ZU3       0.041144
     61 H78A         5.2310     5.5280    -0.7850 hc         1 ZU3       0.041144
     62 H78B         3.5140     5.3720    -1.1810 hc         1 ZU3       0.041144
     63 H80          6.2930     2.0720    -1.8540 hc         1 ZU3       0.041144
     64 H80A         6.8360     3.5940    -1.1240 hc         1 ZU3       0.041144
     65 H80B         5.7960     2.4870    -0.2040 hc         1 ZU3       0.041144
     66 HN33        -0.8060     1.2200     1.0300 hn         1 ZU3       0.331500
     67 H37         -2.1160    -1.2890     0.0660 h1         1 ZU3       0.083700
     68 H41         -2.1330    -0.2950     2.9740 hc         1 ZU3       0.049700
     69 H41A        -3.2330    -1.5140     2.3660 hc         1 ZU3       0.049700
     70 H51         -0.1940    -1.8470     2.4150 hc         1 ZU3       0.070700
     71 H53         -2.2730    -2.9680     4.3650 hc         1 ZU3       0.033533
     72 H53A        -0.5350    -3.3400     4.3630 hc         1 ZU3       0.033533
     73 H53B        -1.0860    -1.6930     4.7200 hc         1 ZU3       0.033533
     74 H55         -2.4020    -3.9160     1.8730 hc         1 ZU3       0.033533
     75 H55A        -1.2550    -3.2870     0.6720 hc         1 ZU3       0.033533
     76 H55B        -0.6670    -4.2690     2.0190 hc         1 ZU3       0.033533
     77 HN49        -4.4810    -1.2230     0.3910 hn         1 ZU3       0.310500
     78 H57         -5.5930     1.5020    -0.1800 h1         1 ZU3       0.091700
     79 H59         -6.6580    -1.2460    -0.9880 hc         1 ZU3       0.048200
     80 H59A        -7.4740     0.2770    -1.2550 hc         1 ZU3       0.048200
     81 H61         -5.4540     1.0520    -2.6220 hc         1 ZU3       0.084700
     82 H63         -7.6290     0.8870     1.0860 hc         1 ZU3       0.053200
     83 H63A        -6.9100    -0.6500     1.5500 hc         1 ZU3       0.053200
     84 HN69        -4.2420    -2.6610    -3.7290 hn         1 ZU3       0.351500
     85 H71         -6.5150    -2.3810    -4.8260 h1         1 ZU3       0.044700
     86 H71A        -6.9630    -2.5260    -3.1070 h1         1 ZU3       0.044700
     87 H73         -7.7050    -0.2180    -3.6460 hc         1 ZU3       0.058700
     88 H73A        -6.3060     0.0480    -4.6880 hc         1 ZU3       0.058700
     89 H82         -5.1460     0.5250     2.8370 hc         1 ZU3       0.071200
     90 H82A        -5.8130     2.1160     2.3220 hc         1 ZU3       0.071200
     91 H86         -5.8150    -0.0240     5.1720 hc         1 ZU3       0.060700
     92 H86A        -7.5830    -0.0650     5.5640 hc         1 ZU3       0.060700
     93 H86B        -6.8170    -1.0380     4.2360 hc         1 ZU3       0.060700
@<TRIPOS>BOND
     1     1     2 2   
     2     1     3 1   
     3     1    11 1   
     4     3     4 1   
     5     4     5 1   
     6     4    45 1   
     7     4    46 1   
     8     5     6 ar  
     9     5    10 ar  
    10     6     7 ar  
    11     6    47 1   
    12     7     8 ar  
    13     7    48 1   
    14     8     9 ar  
    15     8    49 1   
    16     9    10 ar  
    17     9    50 1   
    18    10    51 1   
    19    11    12 1   
    20    11    52 1   
    21    12    13 1   
    22    12    16 1   
    23    12    53 1   
    24    13    14 1   
    25    13    54 1   
    26    13    55 1   
    27    14    15 1   
    28    14    56 1   
    29    15    18 2   
    30    15    19 1   
    31    16    17 2   
    32    16    23 1   
    33    19    20 1   
    34    19    21 1   
    35    19    22 1   
    36    20    57 1   
    37    20    58 1   
    38    20    59 1   
    39    21    60 1   
    40    21    61 1   
    41    21    62 1   
    42    22    63 1   
    43    22    64 1   
    44    22    65 1   
    45    23    24 1   
    46    23    66 1   
    47    24    25 1   
    48    24    27 1   
    49    24    67 1   
    50    25    26 2   
    51    25    31 1   
    52    27    28 1   
    53    27    68 1   
    54    27    69 1   
    55    28    29 1   
    56    28    30 1   
    57    28    70 1   
    58    29    71 1   
    59    29    72 1   
    60    29    73 1   
    61    30    74 1   
    62    30    75 1   
    63    30    76 1   
    64    31    32 1   
    65    31    77 1   
    66    32    33 1   
    67    32    35 1   
    68    32    78 1   
    69    33    34 1   
    70    33    79 1   
    71    33    80 1   
    72    34    36 1   
    73    34    40 1   
    74    34    81 1   
    75    35    41 1   
    76    35    82 1   
    77    35    83 1   
    78    36    37 2   
    79    36    38 1   
    80    38    39 1   
    81    38    84 1   
    82    39    40 1   
    83    39    85 1   
    84    39    86 1   
    85    40    87 1   
    86    40    88 1   
    87    41    42 1   
    88    41    89 1   
    89    41    90 1   
    90    42    43 1   
    91    42    44 2   
    92    43    91 1   
    93    43    92 1   
    94    43    93 1   
@<TRIPOS>SUBSTRUCTURE
     1 ZU3         1 TEMP              0 ****  ****    0 ROOT
