@<TRIPOS>MOLECULE
ZU4
   43    44     1     0     0
SMALL
No Charge or Current Charge


@<TRIPOS>ATOM
      1 O17         -1.0320    -2.7110    -0.9610 o          1 ZU4      -0.567000
      2 C6          -0.5250    -1.6500    -0.6210 c          1 ZU4       0.555200
      3 C1           0.7890    -1.5960     0.0280 cc         1 ZU4      -0.324200
      4 C2           1.4180    -0.4400     0.4360 cd         1 ZU4       0.022800
      5 C16          2.7730    -0.4450     1.0980 c3         1 ZU4      -0.044200
      6 C17          3.9110    -0.1010     0.1130 c3         1 ZU4      -0.071400
      7 C18          5.3070    -0.1030     0.7730 c3         1 ZU4      -0.076400
      8 C19          6.4430     0.2410    -0.2160 c3         1 ZU4      -0.075400
      9 C20          7.8390     0.2390     0.4440 c3         1 ZU4      -0.075400
     10 C21          8.9730     0.5830    -0.5420 c3         1 ZU4      -0.088100
     11 C3           0.7150     0.7900     0.1980 cd         1 ZU4      -0.300000
     12 C4          -0.5240     0.7830    -0.4100 cc         1 ZU4      -0.023400
     13 C8          -4.2860     0.9960    -0.1970 ca         1 ZU4       0.136000
     14 C9          -5.3320     1.0560     0.7410 ca         1 ZU4      -0.110000
     15 C10         -5.7330    -0.0980     1.4330 ca         1 ZU4      -0.092000
     16 C11         -5.0850    -1.3180     1.1860 ca         1 ZU4      -0.111000
     17 C12         -4.0390    -1.3840     0.2500 ca         1 ZU4      -0.061000
     18 C13         -3.6270    -0.2310    -0.4500 ca         1 ZU4      -0.098300
     19 NAD         -1.1430    -0.3980    -0.8160 n          1 ZU4      -0.270000
     20 C14         -2.4810    -0.3500    -1.4550 c3         1 ZU4       0.145300
     21 H1           1.2540    -2.5630     0.1700 ha         1 ZU4       0.206000
     22 H161         2.7830     0.2760     1.9250 hc         1 ZU4       0.052700
     23 H162         2.9700    -1.4260     1.5470 hc         1 ZU4       0.052700
     24 H3           1.1600     1.7360     0.4970 ha         1 ZU4       0.198000
     25 H171         3.8990    -0.8240    -0.7120 hc         1 ZU4       0.043700
     26 H172         3.7200     0.8870    -0.3250 hc         1 ZU4       0.043700
     27 H181         5.3170     0.6200     1.5990 hc         1 ZU4       0.038200
     28 H182         5.4980    -1.0920     1.2100 hc         1 ZU4       0.038200
     29 H191         6.4330    -0.4810    -1.0410 hc         1 ZU4       0.037700
     30 H192         6.2520     1.2300    -0.6530 hc         1 ZU4       0.037700
     31 H201         7.8530     0.9630     1.2680 hc         1 ZU4       0.036700
     32 H202         8.0340    -0.7480     0.8800 hc         1 ZU4       0.036700
     33 H211         9.0070    -0.1450    -1.3620 hc         1 ZU4       0.032033
     34 H212         8.8250     1.5820    -0.9710 hc         1 ZU4       0.032033
     35 H213         9.9420     0.5690    -0.0300 hc         1 ZU4       0.032033
     36 H4          -1.1150     1.6680    -0.6230 h4         1 ZU4       0.200000
     37 H9          -5.8330     2.0020     0.9300 ha         1 ZU4       0.129000
     38 H10         -6.5430    -0.0460     2.1580 ha         1 ZU4       0.118000
     39 H11         -5.3930    -2.2150     1.7200 ha         1 ZU4       0.121000
     40 H12         -3.5470    -2.3380     0.0690 ha         1 ZU4       0.129000
     41 H141        -2.6380    -1.2480    -2.0650 h1         1 ZU4       0.066700
     42 H142        -2.5000     0.4880    -2.1620 h1         1 ZU4       0.066700
     43 Cl          -3.8370     2.4830    -1.0330 cl         1 ZU4      -0.217000
@<TRIPOS>BOND
     1     1     2 2   
     2     2     3 1   
     3     2    19 1   
     4     3     4 2   
     5     3    21 1   
     6     4     5 1   
     7     4    11 1   
     8     5     6 1   
     9     5    22 1   
    10     5    23 1   
    11     6     7 1   
    12     6    25 1   
    13     6    26 1   
    14     7     8 1   
    15     7    27 1   
    16     7    28 1   
    17     8     9 1   
    18     8    29 1   
    19     8    30 1   
    20     9    10 1   
    21     9    31 1   
    22     9    32 1   
    23    10    33 1   
    24    10    34 1   
    25    10    35 1   
    26    11    12 2   
    27    11    24 1   
    28    12    19 1   
    29    12    36 1   
    30    13    14 ar  
    31    13    18 ar  
    32    13    43 1   
    33    14    15 ar  
    34    14    37 1   
    35    15    16 ar  
    36    15    38 1   
    37    16    17 ar  
    38    16    39 1   
    39    17    18 ar  
    40    17    40 1   
    41    18    20 1   
    42    19    20 1   
    43    20    41 1   
    44    20    42 1   
@<TRIPOS>SUBSTRUCTURE
     1 ZU4         1 TEMP              0 ****  ****    0 ROOT
