@<TRIPOS>MOLECULE
ZU4
   43    44     1     0     0
SMALL
abcg2


@<TRIPOS>ATOM
      1 O17         -1.3090    -2.3320    -0.0520 o          1 ZU4      -0.567000
      2 C6          -0.6280    -1.3090    -0.0590 c          1 ZU4       0.555200
      3 C1           0.6500    -1.1710     0.5790 cc         1 ZU4      -0.324200
      4 C2           1.3930    -0.0320     0.5040 cd         1 ZU4       0.022800
      5 C16          2.7440     0.0670     1.1450 c3         1 ZU4      -0.044200
      6 C17          3.8760     0.0460     0.1150 c3         1 ZU4      -0.071400
      7 C18          5.2500     0.1220     0.7670 c3         1 ZU4      -0.076400
      8 C19          6.3910     0.1150    -0.2420 c3         1 ZU4      -0.075400
      9 C20          7.7680     0.1680     0.4090 c3         1 ZU4      -0.075400
     10 C21          8.9020     0.1680    -0.6070 c3         1 ZU4      -0.088100
     11 C3           0.8800     1.0680    -0.2330 cd         1 ZU4      -0.300000
     12 C4          -0.3350     0.9560    -0.8200 cc         1 ZU4      -0.023400
     13 C8          -3.9500     0.6810     0.3930 ca         1 ZU4       0.136000
     14 C9          -5.0330     0.5620     1.2510 ca         1 ZU4      -0.110000
     15 C10         -5.7440    -0.6270     1.2870 ca         1 ZU4      -0.092000
     16 C11         -5.3710    -1.6810     0.4650 ca         1 ZU4      -0.111000
     17 C12         -4.2790    -1.5440    -0.3760 ca         1 ZU4      -0.061000
     18 C13         -3.5420    -0.3640    -0.4310 ca         1 ZU4      -0.098300
     19 NAD         -1.0800    -0.1740    -0.7280 n          1 ZU4      -0.270000
     20 C14         -2.3830    -0.2490    -1.3870 c3         1 ZU4       0.145300
     21 H1           1.0140    -2.0340     1.1230 ha         1 ZU4       0.206000
     22 H161         2.8030     0.9950     1.7230 hc         1 ZU4       0.052700
     23 H162         2.8790    -0.7550     1.8500 hc         1 ZU4       0.052700
     24 H3           1.4370     1.9890    -0.3320 ha         1 ZU4       0.198000
     25 H171         3.8030    -0.8680    -0.4830 hc         1 ZU4       0.043700
     26 H172         3.7550     0.8800    -0.5830 hc         1 ZU4       0.043700
     27 H181         5.3120     1.0260     1.3820 hc         1 ZU4       0.038200
     28 H182         5.3700    -0.7210     1.4560 hc         1 ZU4       0.038200
     29 H191         6.3200    -0.7820    -0.8670 hc         1 ZU4       0.037700
     30 H192         6.2790     0.9660    -0.9230 hc         1 ZU4       0.037700
     31 H201         7.8370     1.0620     1.0370 hc         1 ZU4       0.036700
     32 H202         7.8800    -0.6850     1.0850 hc         1 ZU4       0.036700
     33 H211         8.8720    -0.7290    -1.2280 hc         1 ZU4       0.032033
     34 H212         8.8340     1.0310    -1.2720 hc         1 ZU4       0.032033
     35 H213         9.8770     0.2000    -0.1210 hc         1 ZU4       0.032033
     36 H4          -0.7660     1.7630    -1.3940 h4         1 ZU4       0.200000
     37 H9          -5.3220     1.3930     1.8810 ha         1 ZU4       0.129000
     38 H10         -6.5910    -0.7210     1.9530 ha         1 ZU4       0.118000
     39 H11         -5.9240    -2.6110     0.4850 ha         1 ZU4       0.121000
     40 H12         -3.9830    -2.3690    -1.0120 ha         1 ZU4       0.129000
     41 H141        -2.3890    -1.1060    -2.0580 h1         1 ZU4       0.066700
     42 H142        -2.4850     0.6430    -2.0050 h1         1 ZU4       0.066700
     43 CL          -3.1110     2.2010     0.3530 cl         1 ZU4      -0.217000
@<TRIPOS>BOND
     1     1     2 2   
     2     2     3 1   
     3     2    19 1   
     4     3     4 2   
     5     3    21 1   
     6     4     5 1   
     7     4    11 1   
     8     5     6 1   
     9     5    22 1   
    10     5    23 1   
    11     6     7 1   
    12     6    25 1   
    13     6    26 1   
    14     7     8 1   
    15     7    27 1   
    16     7    28 1   
    17     8     9 1   
    18     8    29 1   
    19     8    30 1   
    20     9    10 1   
    21     9    31 1   
    22     9    32 1   
    23    10    33 1   
    24    10    34 1   
    25    10    35 1   
    26    11    12 2   
    27    11    24 1   
    28    12    19 1   
    29    12    36 1   
    30    13    14 ar  
    31    13    18 ar  
    32    13    43 1   
    33    14    15 ar  
    34    14    37 1   
    35    15    16 ar  
    36    15    38 1   
    37    16    17 ar  
    38    16    39 1   
    39    17    18 ar  
    40    17    40 1   
    41    18    20 1   
    42    19    20 1   
    43    20    41 1   
    44    20    42 1   
@<TRIPOS>SUBSTRUCTURE
     1 ZU4         1 TEMP              0 ****  ****    0 ROOT
