@<TRIPOS>MOLECULE
ZU5
   97    99     1     0     0
SMALL
abcg2


@<TRIPOS>ATOM
      1 C72          4.9550     0.1580    -1.1020 c          1 ZU5       0.642100
      2 O74          4.9920     0.6520    -2.2110 o          1 ZU5      -0.558000
      3 O76          6.0090     0.0830    -0.2820 os         1 ZU5      -0.453100
      4 C78          7.2540     0.5940    -0.7730 c3         1 ZU5       0.231900
      5 C80          8.2440     0.4700     0.3450 ca         1 ZU5      -0.101300
      6 C82          8.9710    -0.7050     0.5170 ca         1 ZU5      -0.083000
      7 C83          9.8670    -0.8330     1.5690 ca         1 ZU5      -0.116000
      8 C84         10.0430     0.2160     2.4620 ca         1 ZU5      -0.098000
      9 C85          9.3210     1.3920     2.2990 ca         1 ZU5      -0.116000
     10 C86          8.4250     1.5160     1.2450 ca         1 ZU5      -0.083000
     11 N70          3.8700    -0.3880    -0.5230 ns         1 ZU5      -0.478900
     12 C54          2.5740    -0.4090    -1.1380 c3         1 ZU5       0.043700
     13 C50          1.5650     0.3030    -0.2370 c          1 ZU5       0.595100
     14 O52          1.7670     0.4670     0.9540 o          1 ZU5      -0.594100
     15 C56          2.1120    -1.8510    -1.4290 c3         1 ZU5       0.169300
     16 O60          2.1040    -2.5330    -0.1970 os         1 ZU5      -0.471000
     17 C58          3.0390    -2.5260    -2.4300 c3         1 ZU5      -0.112100
     18 C62          1.0130    -3.3940     0.1330 c3         1 ZU5       0.195000
     19 C64          0.8390    -4.5080    -0.8990 c3         1 ZU5      -0.108767
     20 C66          1.4060    -3.9920     1.4780 c3         1 ZU5      -0.108767
     21 C68         -0.2890    -2.6090     0.2830 c3         1 ZU5      -0.108767
     22 N48          0.4540     0.7080    -0.8770 ns         1 ZU5      -0.499900
     23 C38         -0.6910     1.2970    -0.2270 c3         1 ZU5       0.030700
     24 C34         -1.9370     0.4890    -0.5880 c          1 ZU5       0.582100
     25 O36         -2.1020     0.0660    -1.7230 o          1 ZU5      -0.602100
     26 C40         -0.9150     2.7530    -0.6540 c3         1 ZU5      -0.083400
     27 C42          0.2350     3.7080    -0.3320 c3         1 ZU5      -0.057700
     28 C44         -0.0530     5.0730    -0.9500 c3         1 ZU5      -0.091600
     29 C46          0.4720     3.8440     1.1690 c3         1 ZU5      -0.091600
     30 C1          -6.5570     4.0680    -0.1550 cx         1 ZU5      -0.269700
     31 C2          -7.9330     4.6780    -0.2790 cx         1 ZU5      -0.096900
     32 C4          -6.9340     5.3190     0.6050 cx         1 ZU5      -0.096900
     33 C7          -6.4100     2.8020     0.6030 c          1 ZU5       0.604100
     34 C11         -5.1960     0.5780     0.8760 c3         1 ZU5      -0.075400
     35 C13         -4.1020    -0.3220     0.3050 c3         1 ZU5       0.107700
     36 C15         -4.0000    -1.6750     1.0150 c3         1 ZU5      -0.071400
     37 C17         -5.2300    -2.5730     0.9850 c5         1 ZU5      -0.150700
     38 C19         -5.0610    -3.8510     1.8100 c5         1 ZU5      -0.092400
     39 C21         -5.9770    -4.8620     1.1210 c5         1 ZU5       0.100000
     40 N23         -5.9840    -4.3820    -0.2440 ns         1 ZU5      -0.514900
     41 C25         -5.6120    -3.1000    -0.3910 c          1 ZU5       0.560000
     42 O28         -5.6030    -2.4760    -1.4420 o          1 ZU5      -0.549000
     43 O30         -7.1130     2.5350     1.5560 o          1 ZU5      -0.535100
     44 N32         -2.8180     0.3510     0.4100 ns         1 ZU5      -0.503900
     45 H78          7.5760     0.0190    -1.6440 h1         1 ZU5       0.055200
     46 H78A         7.1420     1.6370    -1.0760 h1         1 ZU5       0.055200
     47 H82          8.8380    -1.5240    -0.1800 ha         1 ZU5       0.114500
     48 H83         10.4300    -1.7490     1.6900 ha         1 ZU5       0.114000
     49 H84         10.7430     0.1200     3.2820 ha         1 ZU5       0.112000
     50 H85          9.4590     2.2140     2.9890 ha         1 ZU5       0.114000
     51 H86          7.8670     2.4360     1.1200 ha         1 ZU5       0.114500
     52 HN70         3.9470    -0.7500     0.4150 hn         1 ZU5       0.354500
     53 H54          2.6390     0.1220    -2.0900 h1         1 ZU5       0.095700
     54 H56          1.1060    -1.7920    -1.8640 h1         1 ZU5       0.047700
     55 H58          4.0370    -2.6630    -2.0100 hc         1 ZU5       0.047033
     56 H58A         2.6580    -3.5060    -2.7100 hc         1 ZU5       0.047033
     57 H58B         3.1300    -1.9290    -3.3380 hc         1 ZU5       0.047033
     58 H64          1.7580    -5.0860    -1.0120 hc         1 ZU5       0.042922
     59 H64A         0.0510    -5.1920    -0.5840 hc         1 ZU5       0.042922
     60 H64B         0.5570    -4.1230    -1.8810 hc         1 ZU5       0.042922
     61 H66          1.5450    -3.2100     2.2260 hc         1 ZU5       0.042922
     62 H66A         0.6290    -4.6670     1.8390 hc         1 ZU5       0.042922
     63 H66B         2.3340    -4.5610     1.4010 hc         1 ZU5       0.042922
     64 H68         -0.6190    -2.1620    -0.6550 hc         1 ZU5       0.042922
     65 H68A        -1.0850    -3.2760     0.6170 hc         1 ZU5       0.042922
     66 H68B        -0.1870    -1.8160     1.0250 hc         1 ZU5       0.042922
     67 HN48         0.3760     0.5440    -1.8690 hn         1 ZU5       0.330500
     68 H38         -0.5170     1.2500     0.8480 h1         1 ZU5       0.086700
     69 H40         -1.1110     2.7720    -1.7310 hc         1 ZU5       0.050200
     70 H40A        -1.8270     3.1180    -0.1680 hc         1 ZU5       0.050200
     71 H42          1.1470     3.3160    -0.7940 hc         1 ZU5       0.056700
     72 H44         -0.9480     5.5210    -0.5110 hc         1 ZU5       0.035367
     73 H44A         0.7760     5.7620    -0.7850 hc         1 ZU5       0.035367
     74 H44B        -0.2150     4.9980    -2.0270 hc         1 ZU5       0.035367
     75 H46          0.7930     2.9080     1.6260 hc         1 ZU5       0.035367
     76 H46A         1.2480     4.5840     1.3710 hc         1 ZU5       0.035367
     77 H46B        -0.4380     4.1730     1.6770 hc         1 ZU5       0.035367
     78 H1          -5.8860     4.1910    -0.9960 hc         1 ZU5       0.091700
     79 H2          -8.1710     5.1490    -1.2240 hc         1 ZU5       0.080200
     80 H2A         -8.7510     4.1390     0.1800 hc         1 ZU5       0.080200
     81 H4          -7.0600     5.2230     1.6760 hc         1 ZU5       0.080200
     82 H4A         -6.4660     6.2400     0.2820 hc         1 ZU5       0.080200
     83 H9          -5.5180     1.6870    -0.9530 hc         1 ZU5       0.069200
     84 H11         -4.9930     0.7730     1.9340 hc         1 ZU5       0.055200
     85 H13         -4.2910    -0.4860    -0.7540 h1         1 ZU5       0.110700
     86 H15         -3.1550    -2.2200     0.5850 hc         1 ZU5       0.048200
     87 H15A        -3.7410    -1.4970     2.0650 hc         1 ZU5       0.048200
     88 H17         -6.1030    -2.0260     1.3590 hc         1 ZU5       0.077700
     89 H19         -4.0240    -4.1910     1.7530 hc         1 ZU5       0.057700
     90 H19A        -5.3090    -3.7140     2.8610 hc         1 ZU5       0.057700
     91 H21         -5.5970    -5.8820     1.1770 h1         1 ZU5       0.045700
     92 H21A        -6.9840    -4.8550     1.5470 h1         1 ZU5       0.045700
     93 HN23        -6.3850    -4.9100    -1.0040 hn         1 ZU5       0.329500
     94 HN32        -2.5500     0.6820     1.3250 hn         1 ZU5       0.311500
     95 H9A         -4.3910     2.4510     0.1240 hc         1 ZU5       0.069200
     96 H11A        -6.1470     0.0420     0.8420 hc         1 ZU5       0.055200
     97 C9          -5.3270     1.8810     0.1100 c3         1 ZU5      -0.177400
@<TRIPOS>BOND
     1     1     2 2   
     2     1     3 1   
     3     1    11 1   
     4     3     4 1   
     5     4     5 1   
     6     4    45 1   
     7     4    46 1   
     8     5     6 ar  
     9     5    10 ar  
    10     6     7 ar  
    11     6    47 1   
    12     7     8 ar  
    13     7    48 1   
    14     8     9 ar  
    15     8    49 1   
    16     9    10 ar  
    17     9    50 1   
    18    10    51 1   
    19    11    12 1   
    20    11    52 1   
    21    12    13 1   
    22    12    15 1   
    23    12    53 1   
    24    13    14 2   
    25    13    22 1   
    26    15    16 1   
    27    15    17 1   
    28    15    54 1   
    29    16    18 1   
    30    17    55 1   
    31    17    56 1   
    32    17    57 1   
    33    18    19 1   
    34    18    20 1   
    35    18    21 1   
    36    19    58 1   
    37    19    59 1   
    38    19    60 1   
    39    20    61 1   
    40    20    62 1   
    41    20    63 1   
    42    21    64 1   
    43    21    65 1   
    44    21    66 1   
    45    22    23 1   
    46    22    67 1   
    47    23    24 1   
    48    23    26 1   
    49    23    68 1   
    50    24    25 2   
    51    24    44 1   
    52    26    27 1   
    53    26    69 1   
    54    26    70 1   
    55    27    28 1   
    56    27    29 1   
    57    27    71 1   
    58    28    72 1   
    59    28    73 1   
    60    28    74 1   
    61    29    75 1   
    62    29    76 1   
    63    29    77 1   
    64    30    31 1   
    65    30    32 1   
    66    30    33 1   
    67    30    78 1   
    68    31    32 1   
    69    31    79 1   
    70    31    80 1   
    71    32    81 1   
    72    32    82 1   
    73    33    43 2   
    74    33    97 1   
    75    34    35 1   
    76    34    84 1   
    77    34    96 1   
    78    34    97 1   
    79    35    36 1   
    80    35    44 1   
    81    35    85 1   
    82    36    37 1   
    83    36    86 1   
    84    36    87 1   
    85    37    38 1   
    86    37    41 1   
    87    37    88 1   
    88    38    39 1   
    89    38    89 1   
    90    38    90 1   
    91    39    40 1   
    92    39    91 1   
    93    39    92 1   
    94    40    41 1   
    95    40    93 1   
    96    41    42 2   
    97    44    94 1   
    98    83    97 1   
    99    95    97 1   
@<TRIPOS>SUBSTRUCTURE
     1 ZU5         1 TEMP              0 ****  ****    0 ROOT
