@<TRIPOS>MOLECULE
ZU5
   97    99     1     0     0
SMALL
No Charge or Current Charge


@<TRIPOS>ATOM
      1 C72          5.0750     0.4510    -1.2240 c          1 ZU5       0.642100
      2 O74          5.1000     0.7780    -2.4000 o          1 ZU5      -0.558000
      3 O76          6.1350     0.4560    -0.3730 os         1 ZU5      -0.453100
      4 C78          7.4070     0.8630    -0.9000 c3         1 ZU5       0.231900
      5 C80          8.4370     0.7870     0.2190 ca         1 ZU5      -0.101300
      6 C82          9.1470    -0.4080     0.4510 ca         1 ZU5      -0.083000
      7 C83         10.0990    -0.4780     1.4830 ca         1 ZU5      -0.116000
      8 C84         10.3460     0.6450     2.2910 ca         1 ZU5      -0.098000
      9 C85          9.6390     1.8380     2.0660 ca         1 ZU5      -0.116000
     10 C86          8.6870     1.9100     1.0330 ca         1 ZU5      -0.083000
     11 N70          3.9650     0.0470    -0.5450 ns         1 ZU5      -0.478900
     12 C54          2.6120    -0.1250    -1.1330 c3         1 ZU5       0.043700
     13 C50          1.5260     0.3530    -0.1340 c          1 ZU5       0.595100
     14 O52          1.7550     0.5770     1.0480 o          1 ZU5      -0.594100
     15 C56          2.3380    -1.5870    -1.5880 c3         1 ZU5       0.169300
     16 O60          2.5500    -2.4460    -0.4390 os         1 ZU5      -0.471000
     17 C58          3.2850    -2.0530    -2.7200 c3         1 ZU5      -0.112100
     18 C62          1.6070    -3.5080    -0.1350 c3         1 ZU5       0.195000
     19 C64          1.5000    -4.4910    -1.3260 c3         1 ZU5      -0.108767
     20 C66          2.2090    -4.2230     1.0950 c3         1 ZU5      -0.108767
     21 C68          0.2350    -2.8870     0.2280 c3         1 ZU5      -0.108767
     22 N48          0.2670     0.5220    -0.6760 ns         1 ZU5      -0.499900
     23 C38         -0.9450     0.9200     0.0770 c3         1 ZU5       0.030700
     24 C34         -2.1620     0.0800    -0.4020 c          1 ZU5       0.582100
     25 O36         -2.1790    -0.5280    -1.4660 o          1 ZU5      -0.602100
     26 C40         -1.2380     2.4390    -0.0920 c3         1 ZU5      -0.083400
     27 C42         -0.2170     3.4110     0.5610 c3         1 ZU5      -0.057700
     28 C44         -0.4890     4.8680     0.1220 c3         1 ZU5      -0.091600
     29 C46         -0.2010     3.3060     2.1050 c3         1 ZU5      -0.091600
     30 C1          -5.6690     3.9890    -1.1610 cx         1 ZU5      -0.269700
     31 C2          -6.3350     4.8210    -0.0830 cx         1 ZU5      -0.096900
     32 C4          -4.9610     4.2420     0.1580 cx         1 ZU5      -0.096900
     33 C7          -6.2310     2.6150    -1.4660 c          1 ZU5       0.604100
     34 C11         -5.5940     0.5480    -0.1020 c3         1 ZU5      -0.075400
     35 C13         -4.5350    -0.5460     0.1970 c3         1 ZU5       0.107700
     36 C15         -4.9030    -1.4650     1.3920 c3         1 ZU5      -0.071400
     37 C17         -6.2000    -2.3140     1.2550 c5         1 ZU5      -0.150700
     38 C19         -6.5290    -3.1680     2.5100 c5         1 ZU5      -0.092400
     39 C21         -7.5430    -4.1900     1.9250 c5         1 ZU5       0.100000
     40 N23         -6.9750    -4.3990     0.5950 ns         1 ZU5      -0.514900
     41 C25         -6.1890    -3.3740     0.1410 c          1 ZU5       0.560000
     42 O28         -5.4660    -3.4810    -0.8350 o          1 ZU5      -0.549000
     43 O30         -7.3890     2.4720    -1.8350 o          1 ZU5      -0.535100
     44 N32         -3.2360     0.0800     0.4620 ns         1 ZU5      -0.503900
     45 H78          7.7130     0.2080    -1.7260 h1         1 ZU5       0.055200
     46 H78A         7.3580     1.8910    -1.2850 h1         1 ZU5       0.055200
     47 H82          8.9600    -1.2830    -0.1680 ha         1 ZU5       0.114500
     48 H83         10.6440    -1.4040     1.6580 ha         1 ZU5       0.114000
     49 H84         11.0820     0.5900     3.0900 ha         1 ZU5       0.112000
     50 H85          9.8280     2.7080     2.6910 ha         1 ZU5       0.114000
     51 H86          8.1430     2.8370     0.8670 ha         1 ZU5       0.114500
     52 HN70         4.1010    -0.1850     0.4300 hn         1 ZU5       0.354500
     53 H54          2.5270     0.5260    -2.0110 h1         1 ZU5       0.095700
     54 H56          1.3090    -1.6460    -1.9620 h1         1 ZU5       0.047700
     55 H58          4.3110    -2.1710    -2.3520 hc         1 ZU5       0.047033
     56 H58A         2.9620    -3.0090    -3.1460 hc         1 ZU5       0.047033
     57 H58B         3.2950    -1.3200    -3.5350 hc         1 ZU5       0.047033
     58 H64          2.4910    -4.8470    -1.6310 hc         1 ZU5       0.042922
     59 H64A         0.9020    -5.3670    -1.0440 hc         1 ZU5       0.042922
     60 H64B         1.0090    -4.0260    -2.1890 hc         1 ZU5       0.042922
     61 H66          2.3180    -3.5260     1.9350 hc         1 ZU5       0.042922
     62 H66A         1.5650    -5.0490     1.4200 hc         1 ZU5       0.042922
     63 H66B         3.1980    -4.6340     0.8620 hc         1 ZU5       0.042922
     64 H68         -0.2580    -2.4510    -0.6470 hc         1 ZU5       0.042922
     65 H68A        -0.4370    -3.6550     0.6300 hc         1 ZU5       0.042922
     66 H68B         0.3450    -2.1080     0.9920 hc         1 ZU5       0.042922
     67 HN48         0.1540     0.3020    -1.6600 hn         1 ZU5       0.330500
     68 H38         -0.8070     0.6830     1.1390 h1         1 ZU5       0.086700
     69 H40         -1.3050     2.6560    -1.1660 hc         1 ZU5       0.050200
     70 H40A        -2.2290     2.6610     0.3220 hc         1 ZU5       0.050200
     71 H42          0.7850     3.1520     0.1970 hc         1 ZU5       0.056700
     72 H44         -1.4800     5.1990     0.4560 hc         1 ZU5       0.035367
     73 H44A         0.2600     5.5480     0.5460 hc         1 ZU5       0.035367
     74 H44B        -0.4470     4.9600    -0.9700 hc         1 ZU5       0.035367
     75 H46          0.0840     2.3010     2.4360 hc         1 ZU5       0.035367
     76 H46A         0.5230     4.0110     2.5320 hc         1 ZU5       0.035367
     77 H46B        -1.1890     3.5370     2.5220 hc         1 ZU5       0.035367
     78 H1          -5.2900     4.5240    -2.0280 hc         1 ZU5       0.091700
     79 H2          -6.4120     5.8940    -0.2430 hc         1 ZU5       0.080200
     80 H2A         -7.1690     4.3850     0.4630 hc         1 ZU5       0.080200
     81 H4          -4.8780     3.4300     0.8760 hc         1 ZU5       0.080200
     82 H4A         -4.1160     4.9280     0.1560 hc         1 ZU5       0.080200
     83 H9          -5.3540     0.8070    -2.2420 hc         1 ZU5       0.069200
     84 H11         -5.7020     1.1860     0.7830 hc         1 ZU5       0.055200
     85 H13         -4.4430    -1.1760    -0.6990 h1         1 ZU5       0.110700
     86 H15         -4.0580    -2.1430     1.5710 hc         1 ZU5       0.048200
     87 H15A        -4.9810    -0.8420     2.2920 hc         1 ZU5       0.048200
     88 H17         -7.0660    -1.6650     1.0870 hc         1 ZU5       0.077700
     89 H19         -5.6370    -3.6820     2.8890 hc         1 ZU5       0.057700
     90 H19A        -6.9480    -2.5810     3.3350 hc         1 ZU5       0.057700
     91 H21         -7.5890    -5.1110     2.5200 h1         1 ZU5       0.045700
     92 H21A        -8.5540    -3.7640     1.8650 h1         1 ZU5       0.045700
     93 HN23        -7.0260    -5.2530     0.0530 hn         1 ZU5       0.329500
     94 HN32        -3.1270     0.6030     1.3230 hn         1 ZU5       0.311500
     95 H9A         -4.2500     1.8160    -1.2600 hc         1 ZU5       0.069200
     96 H11A        -6.5710     0.0790    -0.2690 hc         1 ZU5       0.055200
     97 C9          -5.2710     1.4270    -1.3420 c3         1 ZU5      -0.177400
@<TRIPOS>BOND
     1     1     2 2   
     2     1     3 1   
     3     1    11 1   
     4     3     4 1   
     5     4     5 1   
     6     4    45 1   
     7     4    46 1   
     8     5     6 ar  
     9     5    10 ar  
    10     6     7 ar  
    11     6    47 1   
    12     7     8 ar  
    13     7    48 1   
    14     8     9 ar  
    15     8    49 1   
    16     9    10 ar  
    17     9    50 1   
    18    10    51 1   
    19    11    12 1   
    20    11    52 1   
    21    12    13 1   
    22    12    15 1   
    23    12    53 1   
    24    13    14 2   
    25    13    22 1   
    26    15    16 1   
    27    15    17 1   
    28    15    54 1   
    29    16    18 1   
    30    17    55 1   
    31    17    56 1   
    32    17    57 1   
    33    18    19 1   
    34    18    20 1   
    35    18    21 1   
    36    19    58 1   
    37    19    59 1   
    38    19    60 1   
    39    20    61 1   
    40    20    62 1   
    41    20    63 1   
    42    21    64 1   
    43    21    65 1   
    44    21    66 1   
    45    22    23 1   
    46    22    67 1   
    47    23    24 1   
    48    23    26 1   
    49    23    68 1   
    50    24    25 2   
    51    24    44 1   
    52    26    27 1   
    53    26    69 1   
    54    26    70 1   
    55    27    28 1   
    56    27    29 1   
    57    27    71 1   
    58    28    72 1   
    59    28    73 1   
    60    28    74 1   
    61    29    75 1   
    62    29    76 1   
    63    29    77 1   
    64    30    31 1   
    65    30    32 1   
    66    30    33 1   
    67    30    78 1   
    68    31    32 1   
    69    31    79 1   
    70    31    80 1   
    71    32    81 1   
    72    32    82 1   
    73    33    43 2   
    74    33    97 1   
    75    34    35 1   
    76    34    84 1   
    77    34    96 1   
    78    34    97 1   
    79    35    36 1   
    80    35    44 1   
    81    35    85 1   
    82    36    37 1   
    83    36    86 1   
    84    36    87 1   
    85    37    38 1   
    86    37    41 1   
    87    37    88 1   
    88    38    39 1   
    89    38    89 1   
    90    38    90 1   
    91    39    40 1   
    92    39    91 1   
    93    39    92 1   
    94    40    41 1   
    95    40    93 1   
    96    41    42 2   
    97    44    94 1   
    98    83    97 1   
    99    95    97 1   
@<TRIPOS>SUBSTRUCTURE
     1 ZU5         1 TEMP              0 ****  ****    0 ROOT
