@<TRIPOS>MOLECULE
ZU6
   35    36     1     0     0
SMALL
abcg2


@<TRIPOS>ATOM
      1 C10         -1.5200     5.8030     4.2500 ca         1 ZU6      -0.160000
      2 C11         -2.0400     5.0280     5.2650 ca         1 ZU6      -0.043000
      3 C13         -1.7210     3.4160     7.1280 c          1 ZU6       0.585600
      4 O3          -0.9320     3.7610    10.3590 o          1 ZU6      -0.552100
      5 C1          -1.0520     2.5420    10.2700 c          1 ZU6       0.576100
      6 N           -1.0640     1.7200    11.3280 ns         1 ZU6      -0.519900
      7 C           -0.9620     2.2110    12.6920 c3         1 ZU6       0.100300
      8 N1          -0.7620     2.6650     7.8160 n          1 ZU6      -0.325300
      9 O2          -2.9080     3.3590     7.4360 o          1 ZU6      -0.579000
     10 C12         -1.1900     4.2350     6.0490 ca         1 ZU6      -0.213600
     11 C9          -0.1370     5.7990     4.0060 ca         1 ZU6      -0.087000
     12 C8           0.7100     5.0240     4.7710 ca         1 ZU6      -0.101000
     13 C7           0.1950     4.2260     5.8070 ca         1 ZU6       0.218400
     14 N2           1.0610     3.4640     6.5590 nc         1 ZU6      -0.594100
     15 C3           0.5910     2.7360     7.5160 cd         1 ZU6       0.548900
     16 C4           1.5240     1.8970     8.3450 c3         1 ZU6      -0.090700
     17 C5           2.9980     2.1530     8.0740 c3         1 ZU6      -0.196400
     18 C6           3.5080     3.5390     8.5130 c          1 ZU6       0.716000
     19 O1           2.8860     4.1250     9.4360 o          1 ZU6      -0.736000
     20 O            4.5430     3.9590     7.9340 o          1 ZU6      -0.736000
     21 H1          -2.1730     6.4150     3.6420 ha         1 ZU6       0.102000
     22 H2          -3.1020     5.0190     5.4710 ha         1 ZU6       0.121000
     23 H3          -1.1420     0.7270    11.1770 hn         1 ZU6       0.304500
     24 H4          -0.9700     1.3570    13.3660 h1         1 ZU6       0.038367
     25 H5          -0.0360     2.7690    12.8330 h1         1 ZU6       0.038367
     26 H6          -1.8010     2.8660    12.9350 h1         1 ZU6       0.038367
     27 H7          -2.3050     1.6910     8.7700 h1         1 ZU6       0.072700
     28 H8          -0.7500     0.8760     8.9080 h1         1 ZU6       0.072700
     29 H9           0.2680     6.4110     3.2100 ha         1 ZU6       0.103000
     30 H10          1.7780     5.0160     4.5940 ha         1 ZU6       0.143000
     31 H11          1.3230     2.0820     9.4010 hc         1 ZU6       0.042700
     32 H12          1.2880     0.8430     8.1630 hc         1 ZU6       0.042700
     33 H13          3.2340     2.0070     7.0210 hc         1 ZU6       0.030700
     34 H14          3.5760     1.4110     8.6340 hc         1 ZU6       0.030700
     35 C2          -1.2380     1.8460     8.9200 c3         1 ZU6       0.007000
@<TRIPOS>BOND
     1     1     2 ar  
     2     1    11 ar  
     3     1    21 1   
     4     2    10 ar  
     5     2    22 1   
     6     3     8 1   
     7     3     9 2   
     8     3    10 1   
     9     4     5 2   
    10     5     6 1   
    11     5    35 1   
    12     6     7 1   
    13     6    23 1   
    14     7    24 1   
    15     7    25 1   
    16     7    26 1   
    17     8    15 1   
    18     8    35 1   
    19    10    13 ar  
    20    11    12 ar  
    21    11    29 1   
    22    12    13 ar  
    23    12    30 1   
    24    13    14 1   
    25    14    15 2   
    26    15    16 1   
    27    16    17 1   
    28    16    31 1   
    29    16    32 1   
    30    17    18 1   
    31    17    33 1   
    32    17    34 1   
    33    18    19 1   
    34    18    20 1   
    35    27    35 1   
    36    28    35 1   
@<TRIPOS>SUBSTRUCTURE
     1 ZU6         1 TEMP              0 ****  ****    0 ROOT
