@<TRIPOS>MOLECULE
ZU6
   35    36     1     0     0
SMALL
No Charge or Current Charge


@<TRIPOS>ATOM
      1 C10         -1.5080     5.8490     4.1700 ca         1 ZU6      -0.160000
      2 C11         -1.9590     5.2010     5.3300 ca         1 ZU6      -0.043000
      3 C13         -1.5730     3.5900     7.2250 c          1 ZU6       0.585600
      4 O3          -0.4120     3.7000    10.4940 o          1 ZU6      -0.552100
      5 C1          -0.8740     2.5750    10.3630 c          1 ZU6       0.576100
      6 N           -1.2260     1.8000    11.4470 ns         1 ZU6      -0.519900
      7 C           -1.0800     2.2220    12.8420 c3         1 ZU6       0.100300
      8 N1          -0.6540     2.7200     7.8130 n          1 ZU6      -0.325300
      9 O2          -2.7050     3.7500     7.6690 o          1 ZU6      -0.579000
     10 C12         -1.1090     4.3050     6.0170 ca         1 ZU6      -0.213600
     11 C9          -0.2130     5.6030     3.6950 ca         1 ZU6      -0.087000
     12 C8           0.6240     4.7110     4.3850 ca         1 ZU6      -0.101000
     13 C7           0.1880     4.0550     5.5530 ca         1 ZU6       0.218400
     14 N2           1.0930     3.1980     6.1800 nc         1 ZU6      -0.594100
     15 C3           0.6510     2.6250     7.3070 cd         1 ZU6       0.548900
     16 C4           1.7120     1.7350     7.9670 c3         1 ZU6      -0.090700
     17 C5           3.1330     2.3580     8.1470 c3         1 ZU6      -0.196400
     18 C6           3.0900     3.5600     9.1070 c          1 ZU6       0.716000
     19 O1           3.2120     3.3390    10.3020 o          1 ZU6      -0.736000
     20 O            2.9160     4.6730     8.6390 o          1 ZU6      -0.736000
     21 H1          -2.1620     6.5380     3.6410 ha         1 ZU6       0.102000
     22 H2          -2.9680     5.3930     5.6890 ha         1 ZU6       0.121000
     23 H3          -1.6080     0.8800    11.2570 hn         1 ZU6       0.304500
     24 H4          -1.4280     1.4200    13.5060 h1         1 ZU6       0.038367
     25 H5          -0.0250     2.4360    13.0550 h1         1 ZU6       0.038367
     26 H6          -1.6790     3.1240    13.0200 h1         1 ZU6       0.038367
     27 H7          -2.1970     1.7270     8.9160 h1         1 ZU6       0.072700
     28 H8          -0.6520     0.9250     8.9900 h1         1 ZU6       0.072700
     29 H9           0.1440     6.1010     2.7950 ha         1 ZU6       0.103000
     30 H10          1.6290     4.5260     4.0140 ha         1 ZU6       0.143000
     31 H11          1.4060     1.4040     8.9630 hc         1 ZU6       0.042700
     32 H12          1.8120     0.8190     7.3720 hc         1 ZU6       0.042700
     33 H13          3.4810     2.6660     7.1540 hc         1 ZU6       0.030700
     34 H14          3.7410     1.5560     8.5830 hc         1 ZU6       0.030700
     35 C2          -1.1200     1.9170     8.9920 c3         1 ZU6       0.007000
@<TRIPOS>BOND
     1     1     2 ar  
     2     1    11 ar  
     3     1    21 1   
     4     2    10 ar  
     5     2    22 1   
     6     3     8 1   
     7     3     9 2   
     8     3    10 1   
     9     4     5 2   
    10     5     6 1   
    11     5    35 1   
    12     6     7 1   
    13     6    23 1   
    14     7    24 1   
    15     7    25 1   
    16     7    26 1   
    17     8    15 1   
    18     8    35 1   
    19    10    13 ar  
    20    11    12 ar  
    21    11    29 1   
    22    12    13 ar  
    23    12    30 1   
    24    13    14 1   
    25    14    15 2   
    26    15    16 1   
    27    16    17 1   
    28    16    31 1   
    29    16    32 1   
    30    17    18 1   
    31    17    33 1   
    32    17    34 1   
    33    18    19 1   
    34    18    20 1   
    35    27    35 1   
    36    28    35 1   
@<TRIPOS>SUBSTRUCTURE
     1 ZU6         1 TEMP              0 ****  ****    0 ROOT
