@<TRIPOS>MOLECULE
ZU7
   33    34     1     0     0
SMALL
No Charge or Current Charge


@<TRIPOS>ATOM
      1 N1         -14.8570    19.3960   -21.6630 n3         1 ZU7      -0.705600
      2 N3         -12.4840    21.6790   -20.8400 ns         1 ZU7      -0.153000
      3 C4         -16.2690    17.2750   -21.8260 c6         1 ZU7       0.153300
      4 C5         -13.8310    17.0440   -21.6200 c6         1 ZU7       0.153300
      5 C6         -13.6800    18.5620   -21.2530 c6         1 ZU7       0.124300
      6 C7         -11.2030    22.2960   -20.8960 ca         1 ZU7      -0.034000
      7 C8         -10.7590    23.0820   -21.9850 ca         1 ZU7      -0.126000
      8 C10         -8.6300    23.4570   -20.8660 ca         1 ZU7       0.136000
      9 O1         -13.5880    22.2700   -22.7880 o          1 ZU7      -0.557100
     10 C1         -13.5650    21.6710   -21.7160 c          1 ZU7       0.599100
     11 C2         -14.7720    20.8260   -21.2160 c3         1 ZU7       0.095800
     12 C3         -16.1360    18.7340   -21.2640 c6         1 ZU7       0.124300
     13 N2         -15.0210    16.7770   -22.4750 n7         1 ZU7      -0.831400
     14 C9          -9.4750    23.6590   -21.9660 ca         1 ZU7      -0.117500
     15 F1          -7.3980    24.0120   -20.8520 f          1 ZU7      -0.184000
     16 C11         -9.0580    22.6790   -19.7810 ca         1 ZU7      -0.117500
     17 C12        -10.3410    22.1020   -19.7980 ca         1 ZU7      -0.126000
     18 H2         -12.6350    21.1340   -20.0000 hn         1 ZU7       0.148000
     19 H3         -17.0910    17.2430   -22.5570 h1         1 ZU7       0.054700
     20 H4         -16.5480    16.6030   -21.0000 h1         1 ZU7       0.054700
     21 H5         -13.9150    16.4600   -20.6910 h1         1 ZU7       0.054700
     22 H6         -12.9200    16.7030   -22.1340 h1         1 ZU7       0.054700
     23 H7         -13.5170    18.6390   -20.1680 h1         1 ZU7       0.035950
     24 H8         -12.7690    18.9440   -21.7370 h1         1 ZU7       0.035950
     25 H9         -11.3860    23.2570   -22.8530 ha         1 ZU7       0.133500
     26 H10        -15.6720    21.3630   -21.5430 h1         1 ZU7       0.048200
     27 H11        -14.7680    20.8700   -20.1180 h1         1 ZU7       0.048200
     28 H12        -16.9970    19.3230   -21.6120 h1         1 ZU7       0.035950
     29 H13        -16.2060    18.6910   -20.1670 h1         1 ZU7       0.035950
     30 H14        -14.8920    17.3550   -23.3150 hn         1 ZU7       0.422000
     31 H16         -9.1350    24.2620   -22.8050 ha         1 ZU7       0.134500
     32 H17         -8.3990    22.5250   -18.9310 ha         1 ZU7       0.134500
     33 H18        -10.6640    21.4990   -18.9500 ha         1 ZU7       0.133500
@<TRIPOS>BOND
     1     1     5 1   
     2     1    11 1   
     3     1    12 1   
     4     2     6 1   
     5     2    10 1   
     6     2    18 1   
     7     3    12 1   
     8     3    13 1   
     9     3    19 1   
    10     3    20 1   
    11     4     5 1   
    12     4    13 1   
    13     4    21 1   
    14     4    22 1   
    15     5    23 1   
    16     5    24 1   
    17     6     7 ar  
    18     6    17 ar  
    19     7    14 ar  
    20     7    25 1   
    21     8    14 ar  
    22     8    15 1   
    23     8    16 ar  
    24     9    10 2   
    25    10    11 1   
    26    11    26 1   
    27    11    27 1   
    28    12    28 1   
    29    12    29 1   
    30    13    30 1   
    31    14    31 1   
    32    16    17 ar  
    33    16    32 1   
    34    17    33 1   
@<TRIPOS>SUBSTRUCTURE
     1 ZU7         1 TEMP              0 ****  ****    0 ROOT
