@<TRIPOS>MOLECULE
ZU7
   33    34     1     0     0
SMALL
abcg2


@<TRIPOS>ATOM
      1 N1         -14.7350    19.2270   -21.5320 n3         1 ZU7      -0.705600
      2 N3         -12.2700    21.6290   -20.5490 ns         1 ZU7      -0.153000
      3 C4         -16.4850    17.5410   -21.9780 c6         1 ZU7       0.153300
      4 C5         -14.1700    16.9030   -22.1450 c6         1 ZU7       0.153300
      5 C6         -13.7850    18.1430   -21.2930 c6         1 ZU7       0.124300
      6 C7         -11.0950    22.3780   -20.7410 ca         1 ZU7      -0.034000
      7 C8         -10.5950    22.7290   -21.9980 ca         1 ZU7      -0.126000
      8 C10         -8.7770    23.8700   -20.9440 ca         1 ZU7       0.136000
      9 O1         -12.9260    21.1280   -22.6800 o          1 ZU7      -0.557100
     10 C1         -13.1090    21.0840   -21.4700 c          1 ZU7       0.599100
     11 C2         -14.3520    20.4440   -20.8540 c3         1 ZU7       0.095800
     12 C3         -16.0820    18.8030   -21.1630 c6         1 ZU7       0.124300
     13 N2         -15.4300    17.0650   -22.8710 n7         1 ZU7      -0.831400
     14 C9          -9.4280    23.4800   -22.0970 ca         1 ZU7      -0.117500
     15 F1          -7.6360    24.6050   -21.0430 f          1 ZU7      -0.184000
     16 C11         -9.2470    23.5370   -19.6860 ca         1 ZU7      -0.117500
     17 C12        -10.4100    22.7890   -19.5920 ca         1 ZU7      -0.126000
     18 H2         -12.5260    21.4800   -19.5830 hn         1 ZU7       0.148000
     19 H3         -17.3720    17.7510   -22.5770 h1         1 ZU7       0.054700
     20 H4         -16.7390    16.7300   -21.2930 h1         1 ZU7       0.054700
     21 H5         -14.2620    16.0290   -21.4950 h1         1 ZU7       0.054700
     22 H6         -13.3850    16.6870   -22.8710 h1         1 ZU7       0.054700
     23 H7         -13.7650    17.8810   -20.2210 h1         1 ZU7       0.035950
     24 H8         -12.7850    18.4890   -21.5590 h1         1 ZU7       0.035950
     25 H9         -11.1130    22.4160   -22.8890 ha         1 ZU7       0.133500
     26 H10        -15.1610    21.1740   -20.9610 h1         1 ZU7       0.048200
     27 H11        -14.2010    20.2910   -19.7730 h1         1 ZU7       0.048200
     28 H12        -16.7670    19.6280   -21.3660 h1         1 ZU7       0.035950
     29 H13        -16.1400    18.5880   -20.0820 h1         1 ZU7       0.035950
     30 H14        -15.2900    17.7590   -23.5970 hn         1 ZU7       0.422000
     31 H16         -9.0320    23.7580   -23.0640 ha         1 ZU7       0.134500
     32 H17         -8.7150    23.8580   -18.8010 ha         1 ZU7       0.134500
     33 H18        -10.7930    22.5190   -18.6160 ha         1 ZU7       0.133500
@<TRIPOS>BOND
     1     1     5 1   
     2     1    11 1   
     3     1    12 1   
     4     2     6 1   
     5     2    10 1   
     6     2    18 1   
     7     3    12 1   
     8     3    13 1   
     9     3    19 1   
    10     3    20 1   
    11     4     5 1   
    12     4    13 1   
    13     4    21 1   
    14     4    22 1   
    15     5    23 1   
    16     5    24 1   
    17     6     7 ar  
    18     6    17 ar  
    19     7    14 ar  
    20     7    25 1   
    21     8    14 ar  
    22     8    15 1   
    23     8    16 ar  
    24     9    10 2   
    25    10    11 1   
    26    11    26 1   
    27    11    27 1   
    28    12    28 1   
    29    12    29 1   
    30    13    30 1   
    31    14    31 1   
    32    16    17 ar  
    33    16    32 1   
    34    17    33 1   
@<TRIPOS>SUBSTRUCTURE
     1 ZU7         1 TEMP              0 ****  ****    0 ROOT
