@<TRIPOS>MOLECULE
ZU9
   45    47     1     0     0
SMALL
abcg2


@<TRIPOS>ATOM
      1 N            1.2200     3.2490     6.5960 nc         1 ZU9      -0.592100
      2 C            1.8270     1.5220     8.1790 c3         1 ZU9      -0.090700
      3 O            3.3640     3.6730     9.2150 o          1 ZU9      -0.735500
      4 O3          -2.6320     3.1270     7.8700 o          1 ZU9      -0.584000
      5 C10         -1.4870     3.1910     7.4290 c          1 ZU9       0.579600
      6 C9          -1.0490     4.1040     6.3870 ca         1 ZU9      -0.213600
      7 C8          -1.9510     4.9870     5.7770 ca         1 ZU9      -0.043000
      8 C7          -1.5120     5.8500     4.7940 ca         1 ZU9      -0.160000
      9 C6          -0.1620     5.8430     4.4100 ca         1 ZU9      -0.086000
     10 C5           0.7360     4.9790     5.0050 ca         1 ZU9      -0.100000
     11 C4           0.3040     4.0930     6.0060 ca         1 ZU9       0.218400
     12 N1          -0.4930     2.3450     7.9260 n          1 ZU9      -0.325300
     13 C3           0.8290     2.4330     7.5160 cd         1 ZU9       0.552900
     14 C1           3.2680     1.7640     7.7580 c3         1 ZU9      -0.195400
     15 C2           3.8800     3.1000     8.2220 c          1 ZU9       0.716000
     16 O1           4.8910     3.4950     7.5830 o          1 ZU9      -0.735500
     17 C11         -0.9260     1.4210     8.9630 c3         1 ZU9       0.015000
     18 C12         -1.0000     2.0990    10.3320 c          1 ZU9       0.575100
     19 O2          -0.3950     3.1370    10.5770 o          1 ZU9      -0.539100
     20 N2          -1.7490     1.4450    11.2330 ns         1 ZU9      -0.518900
     21 C13         -1.8590     1.8820    12.6150 c3         1 ZU9       0.159300
     22 C14         -0.6230     1.6170    13.4490 ca         1 ZU9      -0.095300
     23 C19         -0.2480     2.5240    14.4380 ca         1 ZU9      -0.094000
     24 C18          0.8610     2.2800    15.2420 ca         1 ZU9      -0.107500
     25 C17          1.6130     1.1230    15.0600 ca         1 ZU9      -0.108000
     26 C16          1.2470     0.2150    14.0710 ca         1 ZU9      -0.107500
     27 C15          0.1350     0.4610    13.2720 ca         1 ZU9      -0.094000
     28 H1           1.7390     1.6390     9.2600 hc         1 ZU9       0.045200
     29 H2           1.5500     0.4870     7.9530 hc         1 ZU9       0.045200
     30 H4          -2.9860     4.9760     6.0890 ha         1 ZU9       0.121000
     31 H5          -2.2050     6.5320     4.3190 ha         1 ZU9       0.102000
     32 H6           0.1790     6.5240     3.6410 ha         1 ZU9       0.103000
     33 H7           1.7800     4.9690     4.7200 ha         1 ZU9       0.144000
     34 H8           3.3750     1.6880     6.6770 hc         1 ZU9       0.029700
     35 H9           3.8820     0.9690     8.1920 hc         1 ZU9       0.029700
     36 H10         -1.9040     1.0330     8.6900 h1         1 ZU9       0.070700
     37 H11         -0.2390     0.5830     9.0260 h1         1 ZU9       0.070700
     38 H12         -2.2160     0.5950    10.9580 hn         1 ZU9       0.305500
     39 H13         -2.0850     2.9490    12.6340 h1         1 ZU9       0.053200
     40 H14         -2.7150     1.3590    13.0440 h1         1 ZU9       0.053200
     41 H15         -0.8250     3.4320    14.5740 ha         1 ZU9       0.107000
     42 H16          1.1420     2.9960    16.0040 ha         1 ZU9       0.107000
     43 H17          2.4800     0.9340    15.6800 ha         1 ZU9       0.107000
     44 H18          1.8290    -0.6860    13.9200 ha         1 ZU9       0.107000
     45 H19         -0.1400    -0.2470    12.5000 ha         1 ZU9       0.107000
@<TRIPOS>BOND
     1     1    11 1   
     2     1    13 2   
     3     2    13 1   
     4     2    14 1   
     5     2    28 1   
     6     2    29 1   
     7     3    15 1   
     8     4     5 2   
     9     5     6 1   
    10     5    12 1   
    11     6     7 ar  
    12     6    11 ar  
    13     7     8 ar  
    14     7    30 1   
    15     8     9 ar  
    16     8    31 1   
    17     9    10 ar  
    18     9    32 1   
    19    10    11 ar  
    20    10    33 1   
    21    12    13 1   
    22    12    17 1   
    23    14    15 1   
    24    14    34 1   
    25    14    35 1   
    26    15    16 1   
    27    17    18 1   
    28    17    36 1   
    29    17    37 1   
    30    18    19 2   
    31    18    20 1   
    32    20    21 1   
    33    20    38 1   
    34    21    22 1   
    35    21    39 1   
    36    21    40 1   
    37    22    23 ar  
    38    22    27 ar  
    39    23    24 ar  
    40    23    41 1   
    41    24    25 ar  
    42    24    42 1   
    43    25    26 ar  
    44    25    43 1   
    45    26    27 ar  
    46    26    44 1   
    47    27    45 1   
@<TRIPOS>SUBSTRUCTURE
     1 ZU9         1 TEMP              0 ****  ****    0 ROOT
