@<TRIPOS>MOLECULE
ZU9
   45    47     1     0     0
SMALL
No Charge or Current Charge


@<TRIPOS>ATOM
      1 N            1.2390     3.3600     6.4220 nc         1 ZU9      -0.592100
      2 C            1.8560     1.9960     8.2920 c3         1 ZU9      -0.090700
      3 O            2.8940     3.8740    10.6800 o          1 ZU9      -0.735500
      4 O3          -2.7520     3.2720     7.4240 o          1 ZU9      -0.584000
      5 C10         -1.5640     3.3030     7.1240 c          1 ZU9       0.579600
      6 C9          -1.0750     4.1020     5.9810 ca         1 ZU9      -0.213600
      7 C8          -1.9660     4.8610     5.1890 ca         1 ZU9      -0.043000
      8 C7          -1.4850     5.5900     4.0910 ca         1 ZU9      -0.160000
      9 C6          -0.1190     5.5600     3.7800 ca         1 ZU9      -0.086000
     10 C5           0.7580     4.8030     4.5740 ca         1 ZU9      -0.100000
     11 C4           0.2930     4.0690     5.6820 ca         1 ZU9       0.218400
     12 N1          -0.5960     2.5820     7.8250 n          1 ZU9      -0.325300
     13 C3           0.7600     2.7100     7.4900 cd         1 ZU9       0.552900
     14 C1           3.1590     2.8070     8.5810 c3         1 ZU9      -0.195400
     15 C2           2.8660     4.0300     9.4690 c          1 ZU9       0.716000
     16 O1           2.6040     5.0930     8.9300 o          1 ZU9      -0.735500
     17 C11         -1.0670     1.6850     8.9310 c3         1 ZU9       0.015000
     18 C12         -1.0860     2.3320    10.3280 c          1 ZU9       0.575100
     19 O2          -0.7780     3.4980    10.5290 o          1 ZU9      -0.539100
     20 N2          -1.4820     1.4880    11.3440 ns         1 ZU9      -0.518900
     21 C13         -1.5300     1.8520    12.7610 c3         1 ZU9       0.159300
     22 C14         -0.3510     1.2600    13.5190 ca         1 ZU9      -0.095300
     23 C19          0.9220     1.8530    13.4230 ca         1 ZU9      -0.094000
     24 C18          2.0150     1.3060    14.1170 ca         1 ZU9      -0.107500
     25 C17          1.8400     0.1610    14.9130 ca         1 ZU9      -0.108000
     26 C16          0.5730    -0.4370    15.0120 ca         1 ZU9      -0.107500
     27 C15         -0.5200     0.1100    14.3170 ca         1 ZU9      -0.094000
     28 H1           1.4900     1.6670     9.2690 hc         1 ZU9       0.045200
     29 H2           2.1330     1.0790     7.7570 hc         1 ZU9       0.045200
     30 H4          -3.0290     4.8840     5.4190 ha         1 ZU9       0.121000
     31 H5          -2.1720     6.1740     3.4820 ha         1 ZU9       0.102000
     32 H6           0.2610     6.1220     2.9300 ha         1 ZU9       0.103000
     33 H7           1.8170     4.7870     4.3310 ha         1 ZU9       0.144000
     34 H8           3.5690     3.1190     7.6130 hc         1 ZU9       0.029700
     35 H9           3.8150     2.1090     9.1160 hc         1 ZU9       0.029700
     36 H10         -2.0840     1.3320     8.7240 h1         1 ZU9       0.070700
     37 H11         -0.4480     0.7810     8.9760 h1         1 ZU9       0.070700
     38 H12         -1.7190     0.5360    11.0880 hn         1 ZU9       0.305500
     39 H13         -1.5290     2.9440    12.8720 h1         1 ZU9       0.053200
     40 H14         -2.4710     1.4780    13.1840 h1         1 ZU9       0.053200
     41 H15          1.0660     2.7380    12.8060 ha         1 ZU9       0.107000
     42 H16          2.9960     1.7690    14.0370 ha         1 ZU9       0.107000
     43 H17          2.6860    -0.2630    15.4500 ha         1 ZU9       0.107000
     44 H18          0.4370    -1.3240    15.6260 ha         1 ZU9       0.107000
     45 H19         -1.4970    -0.3610    14.3970 ha         1 ZU9       0.107000
@<TRIPOS>BOND
     1     1    11 1   
     2     1    13 2   
     3     2    13 1   
     4     2    14 1   
     5     2    28 1   
     6     2    29 1   
     7     3    15 1   
     8     4     5 2   
     9     5     6 1   
    10     5    12 1   
    11     6     7 ar  
    12     6    11 ar  
    13     7     8 ar  
    14     7    30 1   
    15     8     9 ar  
    16     8    31 1   
    17     9    10 ar  
    18     9    32 1   
    19    10    11 ar  
    20    10    33 1   
    21    12    13 1   
    22    12    17 1   
    23    14    15 1   
    24    14    34 1   
    25    14    35 1   
    26    15    16 1   
    27    17    18 1   
    28    17    36 1   
    29    17    37 1   
    30    18    19 2   
    31    18    20 1   
    32    20    21 1   
    33    20    38 1   
    34    21    22 1   
    35    21    39 1   
    36    21    40 1   
    37    22    23 ar  
    38    22    27 ar  
    39    23    24 ar  
    40    23    41 1   
    41    24    25 ar  
    42    24    42 1   
    43    25    26 ar  
    44    25    43 1   
    45    26    27 ar  
    46    26    44 1   
    47    27    45 1   
@<TRIPOS>SUBSTRUCTURE
     1 ZU9         1 TEMP              0 ****  ****    0 ROOT
