@<TRIPOS>MOLECULE
ZUC
   29    30     1     0     0
SMALL
abcg2


@<TRIPOS>ATOM
      1 N1         -12.1430    22.6650   -17.3880 ns         1 ZUC      -0.176000
      2 C4         -11.0750    22.8020   -21.4420 ca         1 ZUC      -0.063000
      3 C5         -12.1320    22.0020   -21.0360 ca         1 ZUC      -0.144000
      4 C6         -12.4770    21.9640   -19.6870 ca         1 ZUC       0.155100
      5 C7         -11.7560    22.7240   -18.7620 ca         1 ZUC      -0.155000
      6 C8         -12.9210    23.6150   -16.8100 c          1 ZUC       0.611700
      7 C10        -13.6220    22.2070   -14.8240 ca         1 ZUC      -0.122000
      8 C13        -12.9890    24.4520   -14.4360 ca         1 ZUC       0.161000
      9 C1          -9.9240    24.3420   -18.1590 c3         1 ZUC      -0.051800
     10 C2         -10.6870    23.5300   -19.1670 ca         1 ZUC      -0.023300
     11 C3         -10.3550    23.5570   -20.5200 ca         1 ZUC      -0.144000
     12 O1         -13.5180    21.1760   -19.3100 oh         1 ZUC      -0.530100
     13 O2         -13.4160    24.5530   -17.4170 o          1 ZUC      -0.543100
     14 C9         -13.1640    23.4160   -15.3420 ca         1 ZUC      -0.156600
     15 C11        -13.8840    22.1050   -13.4640 ca         1 ZUC       0.318900
     16 N2         -13.7080    23.1150   -12.6090 nb         1 ZUC      -0.628000
     17 C12        -13.2600    24.2740   -13.0900 ca         1 ZUC       0.300900
     18 H1         -11.6940    21.9850   -16.7880 hn         1 ZUC       0.158000
     19 H2         -10.8050    22.8350   -22.4900 ha         1 ZUC       0.118000
     20 H3         -12.6970    21.4100   -21.7430 ha         1 ZUC       0.133000
     21 H4         -13.7860    21.3590   -15.4770 ha         1 ZUC       0.128000
     22 H5         -10.5660    25.0910   -17.6900 hc         1 ZUC       0.049033
     23 H6          -9.5300    23.7110   -17.3590 hc         1 ZUC       0.049033
     24 H7          -9.0900    24.8570   -18.6350 hc         1 ZUC       0.049033
     25 H8          -9.5300    24.1750   -20.8500 ha         1 ZUC       0.119000
     26 H9         -13.6400    21.2410   -18.3500 ho         1 ZUC       0.466000
     27 H10        -14.2520    21.1740   -13.0500 h4         1 ZUC       0.031100
     28 H11        -13.1050    25.0940   -12.3970 h4         1 ZUC       0.044100
     29 F1         -12.5240    25.6450   -14.8490 f          1 ZUC      -0.153000
@<TRIPOS>BOND
     1     1     5 1   
     2     1     6 1   
     3     1    18 1   
     4     2     3 ar  
     5     2    11 ar  
     6     2    19 1   
     7     3     4 ar  
     8     3    20 1   
     9     4     5 ar  
    10     4    12 1   
    11     5    10 ar  
    12     6    13 2   
    13     6    14 1   
    14     7    14 ar  
    15     7    15 ar  
    16     7    21 1   
    17     8    14 ar  
    18     8    17 ar  
    19     8    29 1   
    20     9    10 1   
    21     9    22 1   
    22     9    23 1   
    23     9    24 1   
    24    10    11 ar  
    25    11    25 1   
    26    12    26 1   
    27    15    16 ar  
    28    15    27 1   
    29    16    17 ar  
    30    17    28 1   
@<TRIPOS>SUBSTRUCTURE
     1 ZUC         1 TEMP              0 ****  ****    0 ROOT
