@<TRIPOS>MOLECULE
ZUC
   29    30     1     0     0
SMALL
No Charge or Current Charge


@<TRIPOS>ATOM
      1 N1         -12.3840    22.8040   -17.4820 ns         1 ZUC      -0.176000
      2 C4         -11.0420    22.6530   -21.5120 ca         1 ZUC      -0.063000
      3 C5         -12.2180    21.9920   -21.1310 ca         1 ZUC      -0.144000
      4 C6         -12.6580    22.0480   -19.8010 ca         1 ZUC       0.155100
      5 C7         -11.9260    22.7710   -18.8320 ca         1 ZUC      -0.155000
      6 C8         -12.7310    23.8930   -16.6900 c          1 ZUC       0.611700
      7 C10        -12.9520    22.2630   -14.7130 ca         1 ZUC      -0.122000
      8 C13        -13.4720    24.5860   -14.3310 ca         1 ZUC       0.161000
      9 C1          -9.8480    24.1690   -18.2080 c3         1 ZUC      -0.051800
     10 C2         -10.7250    23.4250   -19.2140 ca         1 ZUC      -0.023300
     11 C3         -10.3010    23.3630   -20.5560 ca         1 ZUC      -0.144000
     12 O1         -13.8160    21.4060   -19.4680 oh         1 ZUC      -0.530100
     13 O2         -12.7810    25.0270   -17.1520 o          1 ZUC      -0.543100
     14 C9         -13.0550    23.5800   -15.2390 ca         1 ZUC      -0.156600
     15 C11        -13.2580    22.0130   -13.3620 ca         1 ZUC       0.318900
     16 N2         -13.6570    22.9790   -12.5040 nb         1 ZUC      -0.628000
     17 C12        -13.7580    24.2400   -12.9920 ca         1 ZUC       0.300900
     18 H1         -12.4010    21.9070   -17.0150 hn         1 ZUC       0.158000
     19 H2         -10.7030    22.6110   -22.5450 ha         1 ZUC       0.118000
     20 H3         -12.7920    21.4380   -21.8690 ha         1 ZUC       0.133000
     21 H4         -12.6350    21.4210   -15.3220 ha         1 ZUC       0.128000
     22 H5         -10.2110    25.1900   -18.0480 hc         1 ZUC       0.049033
     23 H6          -9.8190    23.6600   -17.2380 hc         1 ZUC       0.049033
     24 H7          -8.8120    24.2420   -18.5590 hc         1 ZUC       0.049033
     25 H8          -9.3830    23.8630   -20.8610 ha         1 ZUC       0.119000
     26 H9         -14.0440    21.6400   -18.5460 ho         1 ZUC       0.466000
     27 H10        -13.1790    21.0060   -12.9540 h4         1 ZUC       0.031100
     28 H11        -14.0810    25.0050   -12.2870 h4         1 ZUC       0.044100
     29 F1         -13.6090    25.8780   -14.7100 f          1 ZUC      -0.153000
@<TRIPOS>BOND
     1     1     5 1   
     2     1     6 1   
     3     1    18 1   
     4     2     3 ar  
     5     2    11 ar  
     6     2    19 1   
     7     3     4 ar  
     8     3    20 1   
     9     4     5 ar  
    10     4    12 1   
    11     5    10 ar  
    12     6    13 2   
    13     6    14 1   
    14     7    14 ar  
    15     7    15 ar  
    16     7    21 1   
    17     8    14 ar  
    18     8    17 ar  
    19     8    29 1   
    20     9    10 1   
    21     9    22 1   
    22     9    23 1   
    23     9    24 1   
    24    10    11 ar  
    25    11    25 1   
    26    12    26 1   
    27    15    16 ar  
    28    15    27 1   
    29    16    17 ar  
    30    17    28 1   
@<TRIPOS>SUBSTRUCTURE
     1 ZUC         1 TEMP              0 ****  ****    0 ROOT
