@<TRIPOS>MOLECULE
ZUD
   72    75     1     0     0
SMALL
No Charge or Current Charge


@<TRIPOS>ATOM
      1 N1         178.2660   192.2200   197.5420 nc         1 ZUD      -0.486800
      2 C2         178.1780   193.5210   194.3470 c3         1 ZUD      -0.069400
      3 N3         180.4830   195.0060   196.9500 na         1 ZUD      -0.862200
      4 C4         178.9870   192.9420   196.6970 cd         1 ZUD       0.235300
      5 C5         179.3220   193.9620   198.6740 cc         1 ZUD      -0.276600
      6 C6         179.6280   193.9990   197.3790 cd         1 ZUD       0.172000
      7 O2         180.4270   199.5430   193.9910 o          1 ZUD      -0.538000
      8 O4         183.5640   196.4840   198.9780 os         1 ZUD      -0.319100
      9 C1         176.6660   193.3500   194.5960 c3         1 ZUD      -0.089100
     10 C10        183.1740   197.2360   197.8870 ca         1 ZUD       0.252100
     11 C11        184.0090   198.2380   197.3490 ca         1 ZUD      -0.241000
     12 C12        183.6160   198.9570   196.2100 ca         1 ZUD       0.047000
     13 C13        182.3770   198.6850   195.6070 ca         1 ZUD      -0.358500
     14 C14        181.5380   197.6890   196.1390 ca         1 ZUD       0.040000
     15 C15        182.1750   198.8330   191.5890 c3         1 ZUD       0.211800
     16 C16        182.5630   197.5710   190.7950 c3         1 ZUD      -0.076400
     17 C17        181.6650   196.3160   191.0190 c5         1 ZUD       0.176500
     18 C18        182.3940   194.9930   190.6280 c5         1 ZUD      -0.095400
     19 C19        182.8570   194.4630   192.0030 c5         1 ZUD      -0.089400
     20 C20        181.5490   194.6800   192.7810 c5         1 ZUD       0.166800
     21 C22        184.7900   196.7210   199.6890 c3         1 ZUD       0.163600
     22 C23        184.8690   195.7110   200.8530 c3         1 ZUD      -0.074400
     23 C24        183.7430   195.8690   201.8990 c3         1 ZUD      -0.093100
     24 C3         179.0630   192.6100   195.2270 c3         1 ZUD      -0.101700
     25 C7         181.0500   195.9330   197.8100 cc         1 ZUD       0.751800
     26 C8         179.8440   194.9250   199.6120 c          1 ZUD       0.752100
     27 C9         181.9380   196.9520   197.2720 ca         1 ZUD      -0.227900
     28 N2         178.4740   192.8620   198.7640 na         1 ZUD       0.178800
     29 N4         180.6990   195.8800   199.0790 nd         1 ZUD      -0.704100
     30 N5         182.5090   198.5860   192.9890 n7         1 ZUD      -0.881300
     31 N6         181.2450   196.0940   192.4470 n3         1 ZUD      -0.755600
     32 O1         179.5770   194.9330   200.8030 o          1 ZUD      -0.548100
     33 O3         182.6490   200.8390   194.0620 o          1 ZUD      -0.538000
     34 H23        178.3880   193.3090   193.2920 hc         1 ZUD       0.033700
     35 H22        178.4510   194.5680   194.5220 hc         1 ZUD       0.033700
     36 H13        176.0930   193.9920   193.9160 hc         1 ZUD       0.038033
     37 H11        176.3590   192.3110   194.4260 hc         1 ZUD       0.038033
     38 H12        176.4040   193.6260   195.6240 hc         1 ZUD       0.038033
     39 H111       184.9730   198.4680   197.7910 ha         1 ZUD       0.127000
     40 H121       184.2800   199.7180   195.8010 ha         1 ZUD       0.138000
     41 H141       180.5690   197.4930   195.6820 ha         1 ZUD       0.140000
     42 H151       182.7330   199.6990   191.2080 h1         1 ZUD       0.040200
     43 H152       181.1030   199.0280   191.4480 h1         1 ZUD       0.040200
     44 H162       182.5540   197.8210   189.7280 hc         1 ZUD       0.057700
     45 H161       183.6060   197.3310   191.0340 hc         1 ZUD       0.057700
     46 H171       180.7800   196.4400   190.3780 h1         1 ZUD       0.041700
     47 H181       181.7010   194.2930   190.1460 hc         1 ZUD       0.052200
     48 H182       183.2260   195.1480   189.9320 hc         1 ZUD       0.052200
     49 H192       183.1610   193.4110   191.9750 hc         1 ZUD       0.058200
     50 H191       183.6860   195.0480   192.4210 hc         1 ZUD       0.058200
     51 H202       180.7600   194.0000   192.4290 h1         1 ZUD       0.044200
     52 H201       181.6770   194.5270   193.8610 h1         1 ZUD       0.044200
     53 H212       179.6680   196.4300   193.8400 h1         1 ZUD       0.033033
     54 H213       179.6770   197.5450   192.4560 h1         1 ZUD       0.033033
     55 H211       179.1370   195.8710   192.2380 h1         1 ZUD       0.033033
     56 H221       184.8180   197.7440   200.0870 h1         1 ZUD       0.039700
     57 H222       185.6540   196.5770   199.0270 h1         1 ZUD       0.039700
     58 H232       184.8490   194.6920   200.4480 hc         1 ZUD       0.049200
     59 H231       185.8370   195.8320   201.3540 hc         1 ZUD       0.049200
     60 H243       183.8780   195.1510   202.7160 hc         1 ZUD       0.046033
     61 H242       183.7500   196.8790   202.3260 hc         1 ZUD       0.046033
     62 H241       182.7600   195.6910   201.4470 hc         1 ZUD       0.046033
     63 H32        178.7820   191.5630   195.0590 hc         1 ZUD       0.054200
     64 H31        180.1030   192.7010   194.8930 hc         1 ZUD       0.054200
     65 H51        182.0580   197.6900   193.2160 hn         1 ZUD       0.526000
     66 H2         180.7510   195.0590   195.9760 hn         1 ZUD       0.510000
     67 C25        177.8270   192.3540   199.9820 c3         1 ZUD       0.076900
     68 S1         181.8810   199.5940   194.1460 sy         1 ZUD       1.157600
     69 C21        179.8600   196.5090   192.7630 c3         1 ZUD       0.150100
     70 H253       177.2150   191.4760   199.7460 h1         1 ZUD       0.066700
     71 H251       178.5950   192.0740   200.7120 h1         1 ZUD       0.066700
     72 H252       177.1890   193.1370   200.4080 h1         1 ZUD       0.066700
@<TRIPOS>BOND
     1     1     4 2   
     2     1    28 1   
     3     2     9 1   
     4     2    24 1   
     5     2    34 1   
     6     2    35 1   
     7     3     6 1   
     8     3    25 1   
     9     3    66 1   
    10     4     6 1   
    11     4    24 1   
    12     5     6 2   
    13     5    26 1   
    14     5    28 1   
    15     7    68 2   
    16     8    10 1   
    17     8    21 1   
    18     9    36 1   
    19     9    37 1   
    20     9    38 1   
    21    10    11 ar  
    22    10    27 ar  
    23    11    12 ar  
    24    11    39 1   
    25    12    13 ar  
    26    12    40 1   
    27    13    14 ar  
    28    13    68 1   
    29    14    27 ar  
    30    14    41 1   
    31    15    16 1   
    32    15    30 1   
    33    15    42 1   
    34    15    43 1   
    35    16    17 1   
    36    16    44 1   
    37    16    45 1   
    38    17    18 1   
    39    17    31 1   
    40    17    46 1   
    41    18    19 1   
    42    18    47 1   
    43    18    48 1   
    44    19    20 1   
    45    19    49 1   
    46    19    50 1   
    47    20    31 1   
    48    20    51 1   
    49    20    52 1   
    50    21    22 1   
    51    21    56 1   
    52    21    57 1   
    53    22    23 1   
    54    22    58 1   
    55    22    59 1   
    56    23    60 1   
    57    23    61 1   
    58    23    62 1   
    59    24    63 1   
    60    24    64 1   
    61    25    27 1   
    62    25    29 2   
    63    26    29 1   
    64    26    32 2   
    65    28    67 1   
    66    30    65 1   
    67    30    68 1   
    68    31    69 1   
    69    33    68 2   
    70    53    69 1   
    71    54    69 1   
    72    55    69 1   
    73    67    70 1   
    74    67    71 1   
    75    67    72 1   
@<TRIPOS>SUBSTRUCTURE
     1 ZUD         1 TEMP              0 ****  ****    0 ROOT
