@<TRIPOS>MOLECULE
ZUD
   72    75     1     0     0
SMALL
abcg2


@<TRIPOS>ATOM
      1 N1         177.0030   192.8520   197.9440 nc         1 ZUD      -0.486800
      2 C2         177.1990   193.8270   194.6210 c3         1 ZUD      -0.069400
      3 N3         179.7600   194.9380   197.0840 na         1 ZUD      -0.862200
      4 C4         177.8330   193.2590   196.9970 cd         1 ZUD       0.235300
      5 C5         178.3600   194.3150   198.8880 cc         1 ZUD      -0.276600
      6 C6         178.7130   194.1980   197.5610 cd         1 ZUD       0.172000
      7 O2         180.2740   199.5970   194.4460 o          1 ZUD      -0.538000
      8 O4         183.0000   195.7350   198.8330 os         1 ZUD      -0.319100
      9 C1         175.7720   194.2420   194.9410 c3         1 ZUD      -0.089100
     10 C10        182.7650   196.5790   197.8360 ca         1 ZUD       0.252100
     11 C11        183.7330   197.4010   197.2570 ca         1 ZUD      -0.241000
     12 C12        183.4030   198.2300   196.1980 ca         1 ZUD       0.047000
     13 C13        182.1070   198.2510   195.7070 ca         1 ZUD      -0.358500
     14 C14        181.1350   197.4400   196.2740 ca         1 ZUD       0.040000
     15 C15        181.0720   197.1970   192.7650 c3         1 ZUD       0.211800
     16 C16        181.4730   196.5600   191.4420 c3         1 ZUD      -0.076400
     17 C17        182.8450   195.8780   191.4400 c5         1 ZUD       0.176500
     18 C18        183.3130   195.5790   190.0120 c5         1 ZUD      -0.095400
     19 C19        184.1890   196.7830   189.6800 c5         1 ZUD      -0.089400
     20 C20        184.9140   197.0030   190.9960 c5         1 ZUD       0.166800
     21 C22        184.2870   195.6910   199.4470 c3         1 ZUD       0.163600
     22 C23        184.2240   194.7030   200.5910 c3         1 ZUD      -0.074400
     23 C24        183.2420   195.0940   201.6870 c3         1 ZUD      -0.093100
     24 C3         177.7520   192.7760   195.5890 c3         1 ZUD      -0.101700
     25 C7         180.3890   195.7700   197.9330 cc         1 ZUD       0.751800
     26 C8         179.0820   195.1840   199.7930 c          1 ZUD       0.752100
     27 C9         181.4530   196.6050   197.3330 ca         1 ZUD      -0.227900
     28 N2         177.3150   193.4780   199.0690 na         1 ZUD       0.178800
     29 N4         180.0910   195.9060   199.1900 nd         1 ZUD      -0.704100
     30 N5         181.8820   198.3970   192.9700 n7         1 ZUD      -0.881300
     31 N6         183.9030   196.7380   192.0180 n3         1 ZUD      -0.755600
     32 O1         178.8410   195.2930   200.9850 o          1 ZUD      -0.548100
     33 O3         182.6740   200.3510   194.2650 o          1 ZUD      -0.538000
     34 H23        177.2450   193.4150   193.6110 hc         1 ZUD       0.033700
     35 H22        177.8510   194.7050   194.6200 hc         1 ZUD       0.033700
     36 H13        175.3960   194.9500   194.2020 hc         1 ZUD       0.038033
     37 H11        175.1030   193.3790   194.9440 hc         1 ZUD       0.038033
     38 H12        175.6980   194.7190   195.9190 hc         1 ZUD       0.038033
     39 H111       184.7500   197.4030   197.6200 ha         1 ZUD       0.127000
     40 H121       184.1700   198.8590   195.7680 ha         1 ZUD       0.138000
     41 H141       180.1140   197.4700   195.9130 ha         1 ZUD       0.140000
     42 H151       180.0190   197.4770   192.7350 h1         1 ZUD       0.040200
     43 H152       181.1960   196.4720   193.5800 h1         1 ZUD       0.040200
     44 H162       180.7220   195.8090   191.1850 hc         1 ZUD       0.057700
     45 H161       181.4280   197.3240   190.6600 hc         1 ZUD       0.057700
     46 H171       182.7690   194.9550   192.0250 h1         1 ZUD       0.041700
     47 H181       183.9170   194.6690   189.9930 hc         1 ZUD       0.052200
     48 H182       182.4830   195.4350   189.3180 hc         1 ZUD       0.052200
     49 H192       184.8740   196.6040   188.8520 hc         1 ZUD       0.058200
     50 H191       183.5790   197.6520   189.4210 hc         1 ZUD       0.058200
     51 H202       185.7530   196.2960   191.0740 h1         1 ZUD       0.044200
     52 H201       185.3260   198.0090   191.1040 h1         1 ZUD       0.044200
     53 H212       185.1710   196.9690   193.6620 h1         1 ZUD       0.033033
     54 H213       183.6740   196.1140   194.0080 h1         1 ZUD       0.033033
     55 H211       184.9800   195.2860   193.1480 h1         1 ZUD       0.033033
     56 H221       184.5570   196.6870   199.8170 h1         1 ZUD       0.039700
     57 H222       185.0400   195.3860   198.7140 h1         1 ZUD       0.039700
     58 H232       183.9870   193.7100   200.2010 hc         1 ZUD       0.049200
     59 H231       185.2330   194.6360   201.0040 hc         1 ZUD       0.049200
     60 H243       183.2860   194.3850   202.5140 hc         1 ZUD       0.046033
     61 H242       183.4750   196.0820   202.0880 hc         1 ZUD       0.046033
     62 H241       182.2140   195.1140   201.3270 hc         1 ZUD       0.046033
     63 H32        177.1210   191.8850   195.5620 hc         1 ZUD       0.054200
     64 H31        178.7470   192.4670   195.2560 hc         1 ZUD       0.054200
     65 H51        182.8640   198.1920   192.7290 hn         1 ZUD       0.526000
     66 H2         180.0730   194.8460   196.1270 hn         1 ZUD       0.510000
     67 C25        176.5760   193.2200   200.2830 c3         1 ZUD       0.076900
     68 S1         181.6900   199.2810   194.3280 sy         1 ZUD       1.157600
     69 C21        184.4580   196.2470   193.2610 c3         1 ZUD       0.150100
     70 H253       175.7780   192.5250   200.0410 h1         1 ZUD       0.066700
     71 H251       177.2180   192.7780   201.0420 h1         1 ZUD       0.066700
     72 H252       176.1430   194.1380   200.6730 h1         1 ZUD       0.066700
@<TRIPOS>BOND
     1     1     4 2   
     2     1    28 1   
     3     2     9 1   
     4     2    24 1   
     5     2    34 1   
     6     2    35 1   
     7     3     6 1   
     8     3    25 1   
     9     3    66 1   
    10     4     6 1   
    11     4    24 1   
    12     5     6 2   
    13     5    26 1   
    14     5    28 1   
    15     7    68 2   
    16     8    10 1   
    17     8    21 1   
    18     9    36 1   
    19     9    37 1   
    20     9    38 1   
    21    10    11 ar  
    22    10    27 ar  
    23    11    12 ar  
    24    11    39 1   
    25    12    13 ar  
    26    12    40 1   
    27    13    14 ar  
    28    13    68 1   
    29    14    27 ar  
    30    14    41 1   
    31    15    16 1   
    32    15    30 1   
    33    15    42 1   
    34    15    43 1   
    35    16    17 1   
    36    16    44 1   
    37    16    45 1   
    38    17    18 1   
    39    17    31 1   
    40    17    46 1   
    41    18    19 1   
    42    18    47 1   
    43    18    48 1   
    44    19    20 1   
    45    19    49 1   
    46    19    50 1   
    47    20    31 1   
    48    20    51 1   
    49    20    52 1   
    50    21    22 1   
    51    21    56 1   
    52    21    57 1   
    53    22    23 1   
    54    22    58 1   
    55    22    59 1   
    56    23    60 1   
    57    23    61 1   
    58    23    62 1   
    59    24    63 1   
    60    24    64 1   
    61    25    27 1   
    62    25    29 2   
    63    26    29 1   
    64    26    32 2   
    65    28    67 1   
    66    30    65 1   
    67    30    68 1   
    68    31    69 1   
    69    33    68 2   
    70    53    69 1   
    71    54    69 1   
    72    55    69 1   
    73    67    70 1   
    74    67    71 1   
    75    67    72 1   
@<TRIPOS>SUBSTRUCTURE
     1 ZUD         1 TEMP              0 ****  ****    0 ROOT
