@<TRIPOS>MOLECULE
ZUE
   49    51     1     0     0
SMALL
abcg2


@<TRIPOS>ATOM
      1 C1          -0.2360     0.5200    14.0970 ca         1 ZUE       0.134100
      2 C2           0.8840     0.1950    14.8590 ca         1 ZUE      -0.199000
      3 C3           1.7550     1.2040    15.2680 ca         1 ZUE      -0.075000
      4 C4           1.5160     2.5270    14.9230 ca         1 ZUE      -0.139000
      5 C5           0.3920     2.8400    14.1600 ca         1 ZUE      -0.045000
      6 C6          -0.4910     1.8550    13.7400 ca         1 ZUE      -0.139300
      7 C7          -1.7050     2.1890    12.9090 c3         1 ZUE       0.163300
      8 N1          -0.8090     2.2240     8.0760 n          1 ZUE      -0.322300
      9 N2           0.5280     3.2450     6.4400 nc         1 ZUE      -0.584100
     10 C8          -1.0680     2.2570    10.5330 c          1 ZUE       0.576100
     11 C9          -0.9330     1.4020     9.2710 c3         1 ZUE       0.013000
     12 C10          0.4160     2.5270     7.5080 cd         1 ZUE       0.560900
     13 C11          1.6550     1.9870     8.1670 c3         1 ZUE      -0.090700
     14 C12          2.9490     2.5190     7.5700 c3         1 ZUE      -0.196400
     15 C13          3.2000     4.0260     7.7790 c          1 ZUE       0.717000
     16 C14         -0.5950     3.7610     5.8500 ca         1 ZUE       0.231400
     17 O4          -0.6550     3.4120    10.5750 o          1 ZUE      -0.552100
     18 N           -1.6440     1.6230    11.5650 ns         1 ZUE      -0.502900
     19 O           -1.1440    -0.3920    13.6490 os         1 ZUE      -0.364100
     20 C           -0.9440    -1.7680    13.9690 c3         1 ZUE       0.150900
     21 C20         -2.0060     2.7520     7.5900 c          1 ZUE       0.577600
     22 O3          -3.0630     2.5240     8.1690 o          1 ZUE      -0.577000
     23 C15         -1.8810     3.5560     6.3810 ca         1 ZUE      -0.210600
     24 C16         -3.0150     4.1090     5.7760 ca         1 ZUE      -0.043000
     25 C17         -2.8780     4.8680     4.6330 ca         1 ZUE      -0.154000
     26 C18         -1.6090     5.0880     4.0830 ca         1 ZUE      -0.084000
     27 C19         -0.4920     4.5450     4.6810 ca         1 ZUE       0.122000
     28 CL           1.0780     4.8420     3.9810 cl         1 ZUE      -0.162000
     29 O2           2.6250     4.5900     8.7450 o          1 ZUE      -0.735000
     30 O1           4.0040     4.5690     6.9770 o          1 ZUE      -0.735000
     31 H1           1.0850    -0.8290    15.1370 ha         1 ZUE       0.108000
     32 H2           2.6230     0.9430    15.8590 ha         1 ZUE       0.106000
     33 H3           2.1930     3.3090    15.2410 ha         1 ZUE       0.119000
     34 H4           0.1960     3.8680    13.8800 ha         1 ZUE       0.133000
     35 H5          -1.7990     3.2680    12.8140 h1         1 ZUE       0.062200
     36 H6          -2.6100     1.8070    13.3810 h1         1 ZUE       0.062200
     37 H7          -1.8010     0.7590     9.1580 h1         1 ZUE       0.071200
     38 H8          -0.0560     0.7700     9.3750 h1         1 ZUE       0.071200
     39 H9           1.6170     2.2290     9.2290 hc         1 ZUE       0.045700
     40 H10          1.6360     0.8950     8.0930 hc         1 ZUE       0.045700
     41 H11          3.0060     2.3000     6.5050 hc         1 ZUE       0.031200
     42 H12          3.7800     1.9900     8.0470 hc         1 ZUE       0.031200
     43 H13         -1.8890     0.6500    11.4650 hn         1 ZUE       0.310500
     44 H14         -1.7730    -2.3020    13.5130 h1         1 ZUE       0.038033
     45 H15          0.0000    -2.1320    13.5570 h1         1 ZUE       0.038033
     46 H16         -0.9550    -1.9240    15.0500 h1         1 ZUE       0.038033
     47 H17         -3.9860     3.9290     6.2160 ha         1 ZUE       0.125000
     48 H18         -3.7460     5.3000     4.1520 ha         1 ZUE       0.106000
     49 H19         -1.4990     5.6850     3.1880 ha         1 ZUE       0.117000
@<TRIPOS>BOND
     1     1     2 ar  
     2     1     6 ar  
     3     1    19 1   
     4     2     3 ar  
     5     2    31 1   
     6     3     4 ar  
     7     3    32 1   
     8     4     5 ar  
     9     4    33 1   
    10     5     6 ar  
    11     5    34 1   
    12     6     7 1   
    13     7    18 1   
    14     7    35 1   
    15     7    36 1   
    16     8    11 1   
    17     8    12 1   
    18     8    21 1   
    19     9    12 2   
    20     9    16 1   
    21    10    11 1   
    22    10    17 2   
    23    10    18 1   
    24    11    37 1   
    25    11    38 1   
    26    12    13 1   
    27    13    14 1   
    28    13    39 1   
    29    13    40 1   
    30    14    15 1   
    31    14    41 1   
    32    14    42 1   
    33    15    29 1   
    34    15    30 1   
    35    16    23 ar  
    36    16    27 ar  
    37    18    43 1   
    38    19    20 1   
    39    20    44 1   
    40    20    45 1   
    41    20    46 1   
    42    21    22 2   
    43    21    23 1   
    44    23    24 ar  
    45    24    25 ar  
    46    24    47 1   
    47    25    26 ar  
    48    25    48 1   
    49    26    27 ar  
    50    26    49 1   
    51    27    28 1   
@<TRIPOS>SUBSTRUCTURE
     1 ZUE         1 TEMP              0 ****  ****    0 ROOT
