@<TRIPOS>MOLECULE
ZUE
   49    51     1     0     0
SMALL
No Charge or Current Charge


@<TRIPOS>ATOM
      1 C1          -0.0540     0.3630    14.3020 ca         1 ZUE       0.134100
      2 C2           1.1980     0.0710    14.8900 ca         1 ZUE      -0.199000
      3 C3           2.2880     0.9370    14.7030 ca         1 ZUE      -0.075000
      4 C4           2.1360     2.0980    13.9300 ca         1 ZUE      -0.139000
      5 C5           0.8950     2.3960    13.3440 ca         1 ZUE      -0.045000
      6 C6          -0.2050     1.5360    13.5290 ca         1 ZUE      -0.139300
      7 C7          -1.5360     1.8860    12.8740 c3         1 ZUE       0.163300
      8 N1          -1.0720     2.3610     7.8450 n          1 ZUE      -0.322300
      9 N2           0.5730     3.2300     6.2760 nc         1 ZUE      -0.584100
     10 C8          -1.3570     2.2370    10.3890 c          1 ZUE       0.576100
     11 C9          -1.3700     1.5000     9.0370 c3         1 ZUE       0.013000
     12 C10          0.2360     2.6090     7.4120 cd         1 ZUE       0.560900
     13 C11          1.4530     2.0770     8.1780 c3         1 ZUE      -0.090700
     14 C12          2.6650     3.0520     8.3340 c3         1 ZUE      -0.196400
     15 C13          2.2760     4.2900     9.1620 c          1 ZUE       0.717000
     16 C14         -0.4880     3.7900     5.5510 ca         1 ZUE       0.231400
     17 O4          -1.1720     3.4420    10.4900 o          1 ZUE      -0.552100
     18 N           -1.5700     1.4300    11.4850 ns         1 ZUE      -0.502900
     19 O           -1.1440    -0.4730    14.4580 os         1 ZUE      -0.364100
     20 C           -1.0810    -1.6900    15.2240 c3         1 ZUE       0.150900
     21 C20         -2.1540     2.9250     7.1710 c          1 ZUE       0.577600
     22 O3          -3.3100     2.7870     7.5530 o          1 ZUE      -0.577000
     23 C15         -1.8310     3.6930     5.9500 ca         1 ZUE      -0.210600
     24 C16         -2.8560     4.2950     5.1860 ca         1 ZUE      -0.043000
     25 C17         -2.5460     4.9980     4.0140 ca         1 ZUE      -0.154000
     26 C18         -1.2120     5.1000     3.5990 ca         1 ZUE      -0.084000
     27 C19         -0.1920     4.5020     4.3580 ca         1 ZUE       0.122000
     28 Cl           1.4740     4.6700     3.7870 cl         1 ZUE      -0.162000
     29 O2           2.3920     4.2240    10.3750 o          1 ZUE      -0.735000
     30 O1           1.8530     5.2740     8.5750 o          1 ZUE      -0.735000
     31 H1           1.3470    -0.8220    15.4900 ha         1 ZUE       0.108000
     32 H2           3.2500     0.7080    15.1560 ha         1 ZUE       0.106000
     33 H3           2.9810     2.7670    13.7810 ha         1 ZUE       0.119000
     34 H4           0.7900     3.2960    12.7410 ha         1 ZUE       0.133000
     35 H5          -1.6930     2.9720    12.9170 h1         1 ZUE       0.062200
     36 H6          -2.3680     1.4210    13.4190 h1         1 ZUE       0.062200
     37 H7          -2.3580     1.0340     8.9320 h1         1 ZUE       0.071200
     38 H8          -0.6590     0.6670     9.0900 h1         1 ZUE       0.071200
     39 H9           1.1890     1.7680     9.1930 hc         1 ZUE       0.045700
     40 H10          1.8060     1.1680     7.6770 hc         1 ZUE       0.045700
     41 H11          2.9780     3.3430     7.3250 hc         1 ZUE       0.031200
     42 H12          3.4280     2.4740     8.8680 hc         1 ZUE       0.031200
     43 H13         -1.7140     0.4420    11.3130 hn         1 ZUE       0.310500
     44 H14         -2.0550    -2.1950    15.2150 h1         1 ZUE       0.038033
     45 H15         -0.3370    -2.3780    14.8020 h1         1 ZUE       0.038033
     46 H16         -0.8170    -1.4810    16.2680 h1         1 ZUE       0.038033
     47 H17         -3.8970     4.2150     5.4960 ha         1 ZUE       0.125000
     48 H18         -3.3380     5.4590     3.4280 ha         1 ZUE       0.106000
     49 H19         -0.9650     5.6430     2.6900 ha         1 ZUE       0.117000
@<TRIPOS>BOND
     1     1     2 ar  
     2     1     6 ar  
     3     1    19 1   
     4     2     3 ar  
     5     2    31 1   
     6     3     4 ar  
     7     3    32 1   
     8     4     5 ar  
     9     4    33 1   
    10     5     6 ar  
    11     5    34 1   
    12     6     7 1   
    13     7    18 1   
    14     7    35 1   
    15     7    36 1   
    16     8    11 1   
    17     8    12 1   
    18     8    21 1   
    19     9    12 2   
    20     9    16 1   
    21    10    11 1   
    22    10    17 2   
    23    10    18 1   
    24    11    37 1   
    25    11    38 1   
    26    12    13 1   
    27    13    14 1   
    28    13    39 1   
    29    13    40 1   
    30    14    15 1   
    31    14    41 1   
    32    14    42 1   
    33    15    29 1   
    34    15    30 1   
    35    16    23 ar  
    36    16    27 ar  
    37    18    43 1   
    38    19    20 1   
    39    20    44 1   
    40    20    45 1   
    41    20    46 1   
    42    21    22 2   
    43    21    23 1   
    44    23    24 ar  
    45    24    25 ar  
    46    24    47 1   
    47    25    26 ar  
    48    25    48 1   
    49    26    27 ar  
    50    26    49 1   
    51    27    28 1   
@<TRIPOS>SUBSTRUCTURE
     1 ZUE         1 TEMP              0 ****  ****    0 ROOT
