@<TRIPOS>MOLECULE
ZUF
   28    30     1     0     0
SMALL
No Charge or Current Charge


@<TRIPOS>ATOM
      1 C10          0.2780    -0.0800     0.0030 cc         1 ZUF       0.668300
      2 N12         -0.7730     0.7710    -0.0100 nu         1 ZUF      -0.888800
      3 C13         -2.1340     0.6360     0.0010 ca         1 ZUF       0.618900
      4 C15         -4.3570     1.6010    -0.0070 ca         1 ZUF      -0.026000
      5 C17         -3.9480    -0.7820     0.0450 ca         1 ZUF       0.405900
      6 C01          5.6740     1.6050    -0.0680 ca         1 ZUF      -0.080000
      7 C02          6.6070     0.5570    -0.0490 ca         1 ZUF      -0.165000
      8 C03          6.1440    -0.7680    -0.0160 ca         1 ZUF       0.338900
      9 N04          4.8300    -1.0890    -0.0010 nb         1 ZUF      -0.673000
     10 C05          3.9120    -0.0810    -0.0190 ca         1 ZUF       0.322000
     11 C06          4.3090     1.2760    -0.0520 ca         1 ZUF      -0.129000
     12 C07          2.4620    -0.4560    -0.0010 cd         1 ZUF       0.251000
     13 C08          2.0030    -1.7600     0.0320 cc         1 ZUF      -0.267000
     14 S09          0.2640    -1.8310     0.0440 ss         1 ZUF       0.060600
     15 N11          1.4490     0.5080    -0.0170 nd         1 ZUF      -0.722000
     16 C14         -2.9610     1.7690    -0.0200 ca         1 ZUF      -0.205000
     17 C16         -4.8600     0.2930     0.0260 ca         1 ZUF       0.011000
     18 N18         -2.6010    -0.6150     0.0330 nb         1 ZUF      -0.740000
     19 Cl1         -6.6000     0.0070     0.0430 cl         1 ZUF      -0.180000
     20 H1          -0.4430     1.7250    -0.0340 hn         1 ZUF       0.518000
     21 H2          -5.0270     2.4580    -0.0230 ha         1 ZUF       0.136000
     22 H3          -4.3070    -1.8100     0.0710 h4         1 ZUF       0.038100
     23 H5           7.6740     0.7610    -0.0610 ha         1 ZUF       0.122000
     24 H6           6.8470    -1.6010    -0.0010 h4         1 ZUF       0.017100
     25 H7           3.5630     2.0670    -0.0660 ha         1 ZUF       0.141000
     26 H8           2.5780    -2.6760     0.0500 h4         1 ZUF       0.175000
     27 H9          -2.5300     2.7650    -0.0450 ha         1 ZUF       0.133000
     28 H4           5.9990     2.6430    -0.0940 ha         1 ZUF       0.118000
@<TRIPOS>BOND
     1     1     2 1   
     2     1    14 1   
     3     1    15 2   
     4     2     3 1   
     5     2    20 1   
     6     3    16 ar  
     7     3    18 ar  
     8     4    16 ar  
     9     4    17 ar  
    10     4    21 1   
    11     5    17 ar  
    12     5    18 ar  
    13     5    22 1   
    14     6     7 ar  
    15     6    11 ar  
    16     6    28 1   
    17     7     8 ar  
    18     7    23 1   
    19     8     9 ar  
    20     8    24 1   
    21     9    10 ar  
    22    10    11 ar  
    23    10    12 1   
    24    11    25 1   
    25    12    13 2   
    26    12    15 1   
    27    13    14 1   
    28    13    26 1   
    29    16    27 1   
    30    17    19 1   
@<TRIPOS>SUBSTRUCTURE
     1 ZUF         1 TEMP              0 ****  ****    0 ROOT
