@<TRIPOS>MOLECULE
ZUF
   28    30     1     0     0
SMALL
abcg2


@<TRIPOS>ATOM
      1 C10          0.3050     0.2400    -0.0000 cc         1 ZUF       0.668300
      2 N12         -0.7500     1.1040    -0.0140 nu         1 ZUF      -0.888800
      3 C13         -2.0840     0.7850     0.0000 ca         1 ZUF       0.618900
      4 C15         -4.3730     1.4360    -0.0010 ca         1 ZUF      -0.026000
      5 C17         -3.6790    -0.8500     0.0380 ca         1 ZUF       0.405900
      6 C01          5.6960     1.4690    -0.0700 ca         1 ZUF      -0.080000
      7 C02          6.5520     0.3780    -0.0490 ca         1 ZUF      -0.165000
      8 C03          5.9880    -0.8900    -0.0120 ca         1 ZUF       0.338900
      9 N04          4.6830    -1.1110     0.0040 nb         1 ZUF      -0.673000
     10 C05          3.8600    -0.0620    -0.0170 ca         1 ZUF       0.322000
     11 C06          4.3280     1.2500    -0.0540 ca         1 ZUF      -0.129000
     12 C07          2.4210    -0.3530     0.0010 cd         1 ZUF       0.251000
     13 C08          1.8720    -1.5950     0.0330 cc         1 ZUF      -0.267000
     14 S09          0.1540    -1.4910     0.0410 ss         1 ZUF       0.060600
     15 N11          1.5230     0.6800    -0.0180 nd         1 ZUF      -0.722000
     16 C14         -3.0480     1.8020    -0.0140 ca         1 ZUF      -0.205000
     17 C16         -4.6970     0.0820     0.0250 ca         1 ZUF       0.011000
     18 N18         -2.4000    -0.4980     0.0250 nb         1 ZUF      -0.740000
     19 CL1         -6.3470    -0.4290     0.0420 cl         1 ZUF      -0.180000
     20 H1          -0.4950     2.0810    -0.0370 hn         1 ZUF       0.518000
     21 H2          -5.1480     2.1910    -0.0110 ha         1 ZUF       0.136000
     22 H3          -3.8950    -1.9110     0.0580 h4         1 ZUF       0.038100
     23 H5           7.6260     0.5000    -0.0610 ha         1 ZUF       0.122000
     24 H6           6.6250    -1.7680     0.0060 h4         1 ZUF       0.017100
     25 H7           3.6320     2.0760    -0.0700 ha         1 ZUF       0.141000
     26 H8           2.3780    -2.5470     0.0520 h4         1 ZUF       0.175000
     27 H9          -2.7620     2.8450    -0.0350 ha         1 ZUF       0.133000
     28 H4           6.0860     2.4780    -0.0990 ha         1 ZUF       0.118000
@<TRIPOS>BOND
     1     1     2 1   
     2     1    14 1   
     3     1    15 2   
     4     2     3 1   
     5     2    20 1   
     6     3    16 ar  
     7     3    18 ar  
     8     4    16 ar  
     9     4    17 ar  
    10     4    21 1   
    11     5    17 ar  
    12     5    18 ar  
    13     5    22 1   
    14     6     7 ar  
    15     6    11 ar  
    16     6    28 1   
    17     7     8 ar  
    18     7    23 1   
    19     8     9 ar  
    20     8    24 1   
    21     9    10 ar  
    22    10    11 ar  
    23    10    12 1   
    24    11    25 1   
    25    12    13 2   
    26    12    15 1   
    27    13    14 1   
    28    13    26 1   
    29    16    27 1   
    30    17    19 1   
@<TRIPOS>SUBSTRUCTURE
     1 ZUF         1 TEMP              0 ****  ****    0 ROOT
