@<TRIPOS>MOLECULE
ZUG
   22    22     1     0     0
SMALL
abcg2


@<TRIPOS>ATOM
      1 N1          -3.6250     3.4400    -6.7690 n3         1 ZUG      -0.728500
      2 C4          -3.6160     0.0780    -7.8120 ca         1 ZUG       0.022000
      3 C5          -4.3760    -0.8900    -8.4500 ca         1 ZUG      -0.184000
      4 C6          -5.6700    -1.1270    -8.0000 ca         1 ZUG       0.385900
      5 C7          -5.4970     0.4590    -6.3610 ca         1 ZUG       0.429900
      6 C1          -4.9860     3.9780    -6.6610 c3         1 ZUG       0.174600
      7 C2          -3.0480     3.5460    -8.1150 c3         1 ZUG       0.174600
      8 S1          -3.3050     2.0630    -5.9340 sy         1 ZUG       1.190600
      9 O1          -1.8970     1.7900    -6.0790 o          1 ZUG      -0.540000
     10 O2          -3.8660     2.2220    -4.6140 o          1 ZUG      -0.540000
     11 C3          -4.1920     0.7610    -6.7460 ca         1 ZUG      -0.370500
     12 N2          -6.2260    -0.4720    -6.9750 nb         1 ZUG      -0.679000
     13 H2          -3.9750    -1.4540    -9.2810 ha         1 ZUG       0.131000
     14 H3          -6.2860    -1.8770    -8.4820 h4         1 ZUG       0.024100
     15 H4          -5.9550     0.9760    -5.5280 h4         1 ZUG       0.041100
     16 H5          -5.3260     3.9260    -5.6310 h1         1 ZUG       0.054867
     17 H6          -4.9520     5.0220    -6.9710 h1         1 ZUG       0.054867
     18 H7          -5.6860     3.4410    -7.3100 h1         1 ZUG       0.054867
     19 H8          -2.0280     3.1750    -8.1120 h1         1 ZUG       0.054867
     20 H9          -3.6400     2.9930    -8.8520 h1         1 ZUG       0.054867
     21 H10         -3.0420     4.6000    -8.3890 h1         1 ZUG       0.054867
     22 H1          -2.6020     0.2900    -8.1230 ha         1 ZUG       0.139000
@<TRIPOS>BOND
     1     1     6 1   
     2     1     7 1   
     3     1     8 1   
     4     2     3 ar  
     5     2    11 ar  
     6     2    22 1   
     7     3     4 ar  
     8     3    13 1   
     9     4    12 ar  
    10     4    14 1   
    11     5    11 ar  
    12     5    12 ar  
    13     5    15 1   
    14     6    16 1   
    15     6    17 1   
    16     6    18 1   
    17     7    19 1   
    18     7    20 1   
    19     7    21 1   
    20     8     9 2   
    21     8    10 2   
    22     8    11 1   
@<TRIPOS>SUBSTRUCTURE
     1 ZUG         1 TEMP              0 ****  ****    0 ROOT
