@<TRIPOS>MOLECULE
ZUG
   22    22     1     0     0
SMALL
No Charge or Current Charge


@<TRIPOS>ATOM
      1 N1          -3.7950     3.2890    -6.9130 n3         1 ZUG      -0.728500
      2 C4          -3.2560     0.0590    -7.5390 ca         1 ZUG       0.022000
      3 C5          -3.4860    -1.0440    -8.3720 ca         1 ZUG      -0.184000
      4 C6          -4.7970    -1.5200    -8.5290 ca         1 ZUG       0.385900
      5 C7          -5.6420     0.1040    -7.1030 ca         1 ZUG       0.429900
      6 C1          -3.5620     4.5890    -6.2510 c3         1 ZUG       0.174600
      7 C2          -4.6910     3.3950    -8.0870 c3         1 ZUG       0.174600
      8 S1          -4.1840     2.0370    -5.8240 sy         1 ZUG       1.190600
      9 O1          -2.9710     1.8140    -5.0290 o          1 ZUG      -0.540000
     10 O2          -5.4720     2.3740    -5.2100 o          1 ZUG      -0.540000
     11 C3          -4.3660     0.6340    -6.8990 ca         1 ZUG      -0.370500
     12 N2          -5.8620    -0.9610    -7.9090 nb         1 ZUG      -0.679000
     13 H2          -2.6650    -1.5280    -8.8940 ha         1 ZUG       0.131000
     14 H3          -5.0020    -2.3750    -9.1710 h4         1 ZUG       0.024100
     15 H4          -6.5240     0.5280    -6.6240 h4         1 ZUG       0.041100
     16 H5          -2.7920     4.5030    -5.4720 h1         1 ZUG       0.054867
     17 H6          -3.2170     5.3380    -6.9750 h1         1 ZUG       0.054867
     18 H7          -4.4820     4.9670    -5.7840 h1         1 ZUG       0.054867
     19 H8          -4.6920     2.4720    -8.6810 h1         1 ZUG       0.054867
     20 H9          -5.7240     3.6090    -7.7790 h1         1 ZUG       0.054867
     21 H10         -4.3630     4.2050    -8.7510 h1         1 ZUG       0.054867
     22 H1          -2.2500     0.4540    -7.4000 ha         1 ZUG       0.139000
@<TRIPOS>BOND
     1     1     6 1   
     2     1     7 1   
     3     1     8 1   
     4     2     3 ar  
     5     2    11 ar  
     6     2    22 1   
     7     3     4 ar  
     8     3    13 1   
     9     4    12 ar  
    10     4    14 1   
    11     5    11 ar  
    12     5    12 ar  
    13     5    15 1   
    14     6    16 1   
    15     6    17 1   
    16     6    18 1   
    17     7    19 1   
    18     7    20 1   
    19     7    21 1   
    20     8     9 2   
    21     8    10 2   
    22     8    11 1   
@<TRIPOS>SUBSTRUCTURE
     1 ZUG         1 TEMP              0 ****  ****    0 ROOT
