@<TRIPOS>MOLECULE
ZUI
   53    56     1     0     0
SMALL
No Charge or Current Charge


@<TRIPOS>ATOM
      1 O2          -8.6570    -0.0600     0.5830 o          1 ZUI      -0.528000
      2 C21         -7.4790    -0.0960     0.2680 c          1 ZUI       0.587200
      3 C1          -6.7750    -1.2940    -0.2380 cc         1 ZUI      -0.266400
      4 C           -7.6060    -2.5500    -0.3610 c3         1 ZUI      -0.018900
      5 N3          -6.6960     1.0080     0.3620 ns         1 ZUI      -0.469500
      6 C20         -5.3800     1.1410     0.0570 c          1 ZUI       0.615000
      7 O1          -4.8300     2.2190     0.2050 o          1 ZUI      -0.553000
      8 N           -4.7300    -0.0210    -0.4250 n          1 ZUI      -0.307000
      9 C2          -5.4370    -1.2180    -0.5650 cd         1 ZUI      -0.010400
     10 C3          -3.2830    -0.0060    -0.7970 c6         1 ZUI       0.128700
     11 C19         -2.9540     0.9040    -2.0020 c6         1 ZUI      -0.091400
     12 C18         -1.4580     0.7840    -2.3730 c6         1 ZUI       0.169800
     13 N1          -0.5790     1.0770    -1.2070 n3         1 ZUI      -0.720600
     14 C5          -0.8590     0.1620    -0.0610 c6         1 ZUI       0.169800
     15 C4          -2.3320     0.2570     0.3940 c6         1 ZUI      -0.091400
     16 C6           0.8520     1.1030    -1.5860 c3         1 ZUI       0.219100
     17 C7           1.7500     1.6270    -0.4760 ca         1 ZUI      -0.108300
     18 C17          2.6560     0.7770     0.1910 ca         1 ZUI      -0.152000
     19 C10          3.4600     1.3280     1.2090 ca         1 ZUI       0.078100
     20 C9           3.3100     2.6960     1.5280 ca         1 ZUI       0.317900
     21 N2           2.4390     3.5190     0.8900 nb         1 ZUI      -0.640000
     22 C8           1.6770     2.9820    -0.0950 ca         1 ZUI       0.325900
     23 O            4.3570     0.5520     1.9140 os         1 ZUI      -0.245200
     24 C11          5.0680    -0.4790     1.3420 ca         1 ZUI       0.102100
     25 C16          5.6120    -0.3570     0.0480 ca         1 ZUI      -0.110000
     26 C15          6.3420    -1.4210    -0.5050 ca         1 ZUI       0.125000
     27 Cl           7.0150    -1.2730    -2.1230 cl         1 ZUI      -0.192000
     28 C14          6.5400    -2.6020     0.2300 ca         1 ZUI      -0.103000
     29 C13          6.0090    -2.7190     1.5270 ca         1 ZUI      -0.094000
     30 C12          5.2760    -1.6540     2.0830 ca         1 ZUI      -0.118000
     31 H3          -8.0150    -2.8500     0.6120 hc         1 ZUI       0.047033
     32 H1          -8.4460    -2.4010    -1.0510 hc         1 ZUI       0.047033
     33 H2          -7.0090    -3.3880    -0.7420 hc         1 ZUI       0.047033
     34 H           -7.1500     1.8390     0.7040 hn         1 ZUI       0.343500
     35 H4          -4.8580    -2.0570    -0.9410 h4         1 ZUI       0.201000
     36 H5          -3.0330    -1.0220    -1.1350 h1         1 ZUI       0.044700
     37 H22         -3.5730     0.6260    -2.8650 hc         1 ZUI       0.070200
     38 H21         -3.1800     1.9520    -1.7720 hc         1 ZUI       0.070200
     39 H20         -1.2610    -0.2310    -2.7510 h1         1 ZUI       0.035700
     40 H19         -1.2450     1.4820    -3.1960 h1         1 ZUI       0.035700
     41 H8          -0.6350    -0.8780    -0.3440 h1         1 ZUI       0.035700
     42 H9          -0.2180     0.4060     0.7980 h1         1 ZUI       0.035700
     43 H6          -2.5080     1.2520     0.8200 hc         1 ZUI       0.070200
     44 H7          -2.5200    -0.4700     1.1950 hc         1 ZUI       0.070200
     45 H10          1.1840     0.0980    -1.8790 h1         1 ZUI       0.042200
     46 H11          0.9920     1.7510    -2.4620 h1         1 ZUI       0.042200
     47 H18          2.7240    -0.2760    -0.0680 ha         1 ZUI       0.127000
     48 H13          3.9100     3.1460     2.3180 h4         1 ZUI       0.035100
     49 H12          0.9830     3.6590    -0.5920 h4         1 ZUI       0.043100
     50 H17          5.4750     0.5560    -0.5250 ha         1 ZUI       0.146000
     51 H16          7.1070    -3.4220    -0.2030 ha         1 ZUI       0.134000
     52 H15          6.1650    -3.6310     2.1000 ha         1 ZUI       0.123000
     53 H14          4.8660    -1.7410     3.0860 ha         1 ZUI       0.134000
@<TRIPOS>BOND
     1     1     2 2   
     2     2     3 1   
     3     2     5 1   
     4     3     4 1   
     5     3     9 2   
     6     4    31 1   
     7     4    32 1   
     8     4    33 1   
     9     5     6 1   
    10     5    34 1   
    11     6     7 2   
    12     6     8 1   
    13     8     9 1   
    14     8    10 1   
    15     9    35 1   
    16    10    11 1   
    17    10    15 1   
    18    10    36 1   
    19    11    12 1   
    20    11    37 1   
    21    11    38 1   
    22    12    13 1   
    23    12    39 1   
    24    12    40 1   
    25    13    14 1   
    26    13    16 1   
    27    14    15 1   
    28    14    41 1   
    29    14    42 1   
    30    15    43 1   
    31    15    44 1   
    32    16    17 1   
    33    16    45 1   
    34    16    46 1   
    35    17    18 ar  
    36    17    22 ar  
    37    18    19 ar  
    38    18    47 1   
    39    19    20 ar  
    40    19    23 1   
    41    20    21 ar  
    42    20    48 1   
    43    21    22 ar  
    44    22    49 1   
    45    23    24 1   
    46    24    25 ar  
    47    24    30 ar  
    48    25    26 ar  
    49    25    50 1   
    50    26    27 1   
    51    26    28 ar  
    52    28    29 ar  
    53    28    51 1   
    54    29    30 ar  
    55    29    52 1   
    56    30    53 1   
@<TRIPOS>SUBSTRUCTURE
     1 ZUI         1 TEMP              0 ****  ****    0 ROOT
