@<TRIPOS>MOLECULE
ZUI
   53    56     1     0     0
SMALL
bcc


@<TRIPOS>ATOM
      1 O2          -8.7190     0.2260     0.3400 o          1 ZUI      -0.603500
      2 C21         -7.5310     0.1070     0.0950 c          1 ZUI       0.729700
      3 C1          -6.8890    -1.1090    -0.3530 cc         1 ZUI      -0.266400
      4 C           -7.7170    -2.3370    -0.5480 c3         1 ZUI      -0.018900
      5 N3          -6.6710     1.1800     0.2340 ns         1 ZUI      -0.603500
      6 C20         -5.3190     1.2230     0.0030 c          1 ZUI       0.824500
      7 O1          -4.6830     2.2460     0.1600 o          1 ZUI      -0.628500
      8 N           -4.7710     0.0320    -0.4080 n          1 ZUI      -0.374000
      9 C2          -5.5630    -1.0730    -0.5750 cd         1 ZUI       0.039600
     10 C3          -3.3300    -0.0780    -0.6920 c6         1 ZUI       0.128700
     11 C19         -2.8820     0.7530    -1.8880 c6         1 ZUI      -0.091400
     12 C18         -1.4110     0.4760    -2.1640 c6         1 ZUI       0.169800
     13 N1          -0.6000     0.7580    -0.9940 n3         1 ZUI      -0.720600
     14 C5          -0.9920    -0.0710     0.1310 c6         1 ZUI       0.169800
     15 C4          -2.4420     0.1830     0.5180 c6         1 ZUI      -0.091400
     16 C6           0.8130     0.6480    -1.2750 c3         1 ZUI       0.219100
     17 C7           1.6660     1.3320    -0.2390 ca         1 ZUI      -0.173600
     18 C17          2.9090     0.8160     0.1050 ca         1 ZUI      -0.170000
     19 C10          3.6870     1.5070     1.0210 ca         1 ZUI       0.012800
     20 C9           3.1920     2.6870     1.5690 ca         1 ZUI       0.383200
     21 N2           2.0050     3.1730     1.2460 nb         1 ZUI      -0.640000
     22 C8           1.2600     2.5160     0.3660 ca         1 ZUI       0.391200
     23 O            4.9210     1.1170     1.4350 os         1 ZUI      -0.245200
     24 C11          5.4290    -0.0720     0.9770 ca         1 ZUI       0.102100
     25 C16          6.2590    -0.0570    -0.1340 ca         1 ZUI      -0.128000
     26 C15          6.8040    -1.2580    -0.5620 ca         1 ZUI       0.033400
     27 CL           7.8490    -1.2570    -1.9430 cl         1 ZUI      -0.100400
     28 C14          6.5310    -2.4520     0.0860 ca         1 ZUI      -0.121000
     29 C13          5.6940    -2.4360     1.1920 ca         1 ZUI      -0.112000
     30 C12          5.1350    -1.2500     1.6450 ca         1 ZUI      -0.136000
     31 H3          -8.1950    -2.6480     0.3820 hc         1 ZUI       0.047033
     32 H1          -8.5100    -2.1690    -1.2790 hc         1 ZUI       0.047033
     33 H2          -7.1060    -3.1650    -0.9030 hc         1 ZUI       0.047033
     34 H           -7.0800     2.0540     0.5420 hn         1 ZUI       0.343500
     35 H4          -5.0410    -1.9580    -0.9120 h4         1 ZUI       0.151000
     36 H5          -3.1910    -1.1280    -0.9620 h1         1 ZUI       0.044700
     37 H22         -3.4700     0.4900    -2.7700 hc         1 ZUI       0.070200
     38 H21         -3.0210     1.8160    -1.6950 hc         1 ZUI       0.070200
     39 H20         -1.2920    -0.5700    -2.4990 h1         1 ZUI       0.035700
     40 H19         -1.0740     1.1090    -2.9880 h1         1 ZUI       0.035700
     41 H8          -0.8480    -1.1430    -0.0960 h1         1 ZUI       0.035700
     42 H9          -0.3520     0.1550     0.9860 h1         1 ZUI       0.035700
     43 H6          -2.5460     1.2100     0.8640 hc         1 ZUI       0.070200
     44 H7          -2.7210    -0.4800     1.3390 hc         1 ZUI       0.070200
     45 H10          1.1420    -0.3990    -1.3840 h1         1 ZUI       0.042200
     46 H11          1.0080     1.1240    -2.2420 h1         1 ZUI       0.042200
     47 H18          3.2450    -0.1110    -0.3440 ha         1 ZUI       0.145000
     48 H13          3.7850     3.2400     2.2890 h4         1 ZUI       0.035100
     49 H12          0.2890     2.9360     0.1310 h4         1 ZUI       0.043100
     50 H17          6.4780     0.8720    -0.6430 ha         1 ZUI       0.164000
     51 H16          6.9660    -3.3790    -0.2610 ha         1 ZUI       0.152000
     52 H15          5.4780    -3.3620     1.7080 ha         1 ZUI       0.141000
     53 H14          4.4850    -1.2400     2.5110 ha         1 ZUI       0.152000
@<TRIPOS>BOND
     1     1     2 2   
     2     2     3 1   
     3     2     5 1   
     4     3     4 1   
     5     3     9 2   
     6     4    31 1   
     7     4    32 1   
     8     4    33 1   
     9     5     6 1   
    10     5    34 1   
    11     6     7 2   
    12     6     8 1   
    13     8     9 1   
    14     8    10 1   
    15     9    35 1   
    16    10    11 1   
    17    10    15 1   
    18    10    36 1   
    19    11    12 1   
    20    11    37 1   
    21    11    38 1   
    22    12    13 1   
    23    12    39 1   
    24    12    40 1   
    25    13    14 1   
    26    13    16 1   
    27    14    15 1   
    28    14    41 1   
    29    14    42 1   
    30    15    43 1   
    31    15    44 1   
    32    16    17 1   
    33    16    45 1   
    34    16    46 1   
    35    17    18 ar  
    36    17    22 ar  
    37    18    19 ar  
    38    18    47 1   
    39    19    20 ar  
    40    19    23 1   
    41    20    21 ar  
    42    20    48 1   
    43    21    22 ar  
    44    22    49 1   
    45    23    24 1   
    46    24    25 ar  
    47    24    30 ar  
    48    25    26 ar  
    49    25    50 1   
    50    26    27 1   
    51    26    28 ar  
    52    28    29 ar  
    53    28    51 1   
    54    29    30 ar  
    55    29    52 1   
    56    30    53 1   
@<TRIPOS>SUBSTRUCTURE
     1 ZUI         1 TEMP              0 ****  ****    0 ROOT
