@<TRIPOS>MOLECULE
ZUJ
   42    44     1     0     0
SMALL
No Charge or Current Charge


@<TRIPOS>ATOM
      1 C10         -2.7000    12.8040     7.4110 c6         1 ZUJ      -0.017100
      2 C13         -4.2230     7.9060    11.6350 c3         1 ZUJ       0.074600
      3 C17         -4.8090     5.0650    14.1710 ca         1 ZUJ       0.039000
      4 C20         -5.4520     2.9880    15.9830 ca         1 ZUJ      -0.309500
      5 C21         -6.4690     3.6200    15.2420 ca         1 ZUJ       0.024000
      6 C22         -6.1480     4.6520    14.3430 ca         1 ZUJ      -0.179000
      7 C01         -3.2750    11.7050     8.2950 ca         1 ZUJ      -0.174300
      8 C02         -2.4520    10.9860     9.1800 ca         1 ZUJ      -0.039000
      9 C03         -3.0020     9.9770     9.9900 ca         1 ZUJ      -0.217000
     10 C04         -4.3820     9.6850     9.9200 ca         1 ZUJ       0.161100
     11 C05         -5.1990    10.4090     9.0390 ca         1 ZUJ      -0.145000
     12 C06         -4.6510    11.4100     8.2260 ca         1 ZUJ       0.170100
     13 C08         -5.0320    12.9610     6.4000 c          1 ZUJ       0.672100
     14 C09         -3.5260    12.9100     6.1160 c6         1 ZUJ      -0.188400
     15 C14         -5.1120     6.8840    12.3770 c          1 ZUJ       0.609100
     16 C18         -3.8020     4.4280    14.9200 ca         1 ZUJ      -0.179000
     17 C19         -4.1150     3.3950    15.8200 ca         1 ZUJ       0.024000
     18 N16         -4.4080     6.1010    13.2840 ns         1 ZUJ      -0.155000
     19 N26         -5.6410     0.3490    16.1960 n8         1 ZUJ      -1.003100
     20 O07         -5.4790    12.1220     7.3900 os         1 ZUJ      -0.347200
     21 O11         -5.7830    13.7100     5.7910 o          1 ZUJ      -0.471000
     22 O12         -4.9740     8.7090    10.6940 os         1 ZUJ      -0.305100
     23 O15         -6.3180     6.7830    12.1730 o          1 ZUJ      -0.522100
     24 O24         -7.2840     1.6740    17.4160 o          1 ZUJ      -0.545000
     25 O25         -4.8300     1.5710    18.1730 o          1 ZUJ      -0.545000
     26 S23         -5.8510     1.6730    17.1310 sy         1 ZUJ       1.132600
     27 H101        -1.6470    12.6010     7.1700 hc         1 ZUJ       0.062200
     28 H1          -2.7230    13.7610     7.9510 hc         1 ZUJ       0.062200
     29 H132        -3.4340     7.3440    11.1190 h1         1 ZUJ       0.054200
     30 H131        -3.7490     8.5430    12.3930 h1         1 ZUJ       0.054200
     31 H211        -7.5110     3.3210    15.3590 ha         1 ZUJ       0.139500
     32 H221        -6.9600     5.1180    13.7950 ha         1 ZUJ       0.134000
     33 H021        -1.3880    11.2080     9.2420 ha         1 ZUJ       0.116000
     34 H031        -2.3440     9.4360    10.6630 ha         1 ZUJ       0.117000
     35 H051        -6.2620    10.1930     8.9870 ha         1 ZUJ       0.157000
     36 H2          -3.3570    11.9710     5.5740 hc         1 ZUJ       0.082700
     37 H091        -3.2250    13.7460     5.4710 hc         1 ZUJ       0.082700
     38 H181        -2.7640     4.7310    14.8040 ha         1 ZUJ       0.134000
     39 H191        -3.3150     2.9170    16.3850 ha         1 ZUJ       0.139500
     40 H161        -3.4180     6.3060    13.3240 hn         1 ZUJ       0.153000
     41 H261        -6.5320    -0.1230    16.3280 hn         1 ZUJ       0.471500
     42 H262        -5.7070     0.7360    15.2580 hn         1 ZUJ       0.471500
@<TRIPOS>BOND
     1     1     7 1   
     2     1    14 1   
     3     1    27 1   
     4     1    28 1   
     5     2    15 1   
     6     2    22 1   
     7     2    29 1   
     8     2    30 1   
     9     3     6 ar  
    10     3    16 ar  
    11     3    18 1   
    12     4     5 ar  
    13     4    17 ar  
    14     4    26 1   
    15     5     6 ar  
    16     5    31 1   
    17     6    32 1   
    18     7     8 ar  
    19     7    12 ar  
    20     8     9 ar  
    21     8    33 1   
    22     9    10 ar  
    23     9    34 1   
    24    10    11 ar  
    25    10    22 1   
    26    11    12 ar  
    27    11    35 1   
    28    12    20 1   
    29    13    14 1   
    30    13    20 1   
    31    13    21 2   
    32    14    36 1   
    33    14    37 1   
    34    15    18 1   
    35    15    23 2   
    36    16    17 ar  
    37    16    38 1   
    38    17    39 1   
    39    18    40 1   
    40    19    26 1   
    41    19    41 1   
    42    19    42 1   
    43    24    26 2   
    44    25    26 2   
@<TRIPOS>SUBSTRUCTURE
     1 ZUJ         1 TEMP              0 ****  ****    0 ROOT
