@<TRIPOS>MOLECULE
ZUJ
   42    44     1     0     0
SMALL
abcg2


@<TRIPOS>ATOM
      1 C10         -2.7170    12.6320     7.3790 c6         1 ZUJ      -0.017100
      2 C13         -4.1520     8.0410    11.7570 c3         1 ZUJ       0.074600
      3 C17         -4.8490     5.2050    14.1040 ca         1 ZUJ       0.039000
      4 C20         -5.5860     3.0870    15.7460 ca         1 ZUJ      -0.309500
      5 C21         -6.5490     3.7720    15.0260 ca         1 ZUJ       0.024000
      6 C22         -6.1890     4.8300    14.2040 ca         1 ZUJ      -0.179000
      7 C01         -3.2190    11.6180     8.3580 ca         1 ZUJ      -0.174300
      8 C02         -2.4130    10.8640     9.1940 ca         1 ZUJ      -0.039000
      9 C03         -2.9390     9.9360    10.0850 ca         1 ZUJ      -0.217000
     10 C04         -4.3170     9.7450    10.1350 ca         1 ZUJ       0.161100
     11 C05         -5.1510    10.4860     9.3000 ca         1 ZUJ      -0.145000
     12 C06         -4.5910    11.4040     8.4350 ca         1 ZUJ       0.170100
     13 C08         -5.0720    12.7610     6.5350 c          1 ZUJ       0.672100
     14 C09         -3.6260    12.6270     6.1560 c6         1 ZUJ      -0.188400
     15 C14         -5.0750     7.0730    12.4800 c          1 ZUJ       0.609100
     16 C18         -3.8870     4.5050    14.8450 ca         1 ZUJ      -0.179000
     17 C19         -4.2480     3.4580    15.6620 ca         1 ZUJ       0.024000
     18 N16         -4.3820     6.2410    13.3050 ns         1 ZUJ      -0.155000
     19 N26         -5.3490     0.4730    16.0410 n8         1 ZUJ      -1.003100
     20 O07         -5.4650    12.1320     7.6630 os         1 ZUJ      -0.347200
     21 O11         -5.9050    13.3610     5.9170 o          1 ZUJ      -0.471000
     22 O12         -4.9390     8.8670    10.9490 os         1 ZUJ      -0.305100
     23 O15         -6.2740     7.0560    12.3220 o          1 ZUJ      -0.522100
     24 O24         -7.4960     1.6910    16.8510 o          1 ZUJ      -0.545000
     25 O25         -5.3250     1.8880    18.0760 o          1 ZUJ      -0.545000
     26 S23         -6.0420     1.7620    16.8160 sy         1 ZUJ       1.132600
     27 H101        -1.6920    12.4110     7.0810 hc         1 ZUJ       0.062200
     28 H1          -2.7060    13.6280     7.8310 hc         1 ZUJ       0.062200
     29 H132        -3.4300     7.4620    11.1680 h1         1 ZUJ       0.054200
     30 H131        -3.5810     8.6170    12.4970 h1         1 ZUJ       0.054200
     31 H211        -7.5920     3.4940    15.0930 ha         1 ZUJ       0.139500
     32 H221        -6.9580     5.3460    13.6540 ha         1 ZUJ       0.134000
     33 H021        -1.3400    11.0030     9.1550 ha         1 ZUJ       0.116000
     34 H031        -2.2610     9.3800    10.7180 ha         1 ZUJ       0.117000
     35 H051        -6.2240    10.3400     9.3300 ha         1 ZUJ       0.157000
     36 H2          -3.5160    11.6790     5.6170 hc         1 ZUJ       0.082700
     37 H091        -3.3780    13.4230     5.4570 hc         1 ZUJ       0.082700
     38 H181        -2.8440     4.7900    14.7790 ha         1 ZUJ       0.134000
     39 H191        -3.4850     2.9340    16.2230 ha         1 ZUJ       0.139500
     40 H161        -3.3810     6.3810    13.3370 hn         1 ZUJ       0.153000
     41 H261        -5.2600    -0.3270    16.6610 hn         1 ZUJ       0.471500
     42 H262        -5.8490     0.2080    15.1970 hn         1 ZUJ       0.471500
@<TRIPOS>BOND
     1     1     7 1   
     2     1    14 1   
     3     1    27 1   
     4     1    28 1   
     5     2    15 1   
     6     2    22 1   
     7     2    29 1   
     8     2    30 1   
     9     3     6 ar  
    10     3    16 ar  
    11     3    18 1   
    12     4     5 ar  
    13     4    17 ar  
    14     4    26 1   
    15     5     6 ar  
    16     5    31 1   
    17     6    32 1   
    18     7     8 ar  
    19     7    12 ar  
    20     8     9 ar  
    21     8    33 1   
    22     9    10 ar  
    23     9    34 1   
    24    10    11 ar  
    25    10    22 1   
    26    11    12 ar  
    27    11    35 1   
    28    12    20 1   
    29    13    14 1   
    30    13    20 1   
    31    13    21 2   
    32    14    36 1   
    33    14    37 1   
    34    15    18 1   
    35    15    23 2   
    36    16    17 ar  
    37    16    38 1   
    38    17    39 1   
    39    18    40 1   
    40    19    26 1   
    41    19    41 1   
    42    19    42 1   
    43    24    26 2   
    44    25    26 2   
@<TRIPOS>SUBSTRUCTURE
     1 ZUJ         1 TEMP              0 ****  ****    0 ROOT
