@<TRIPOS>MOLECULE
ZUK
   26    26     1     0     0
SMALL
No Charge or Current Charge


@<TRIPOS>ATOM
      1 C            2.8180     5.0380     6.4610 c          1 ZUK       0.720000
      2 N            3.4910     2.8550     7.7570 n8         1 ZUK      -1.005200
      3 O            1.6090     4.8480     6.3810 o          1 ZUK      -0.735000
      4 CA           3.6150     4.3520     7.6510 c3         1 ZUK       0.017500
      5 CB           3.2690     5.0290     9.0100 c3         1 ZUK      -0.093400
      6 CD           4.7380     3.6480    10.7190 c3         1 ZUK      -0.119700
      7 CE           3.5610     2.9870    11.4290 ca         1 ZUK       0.153300
      8 CG           4.3940     5.0190    10.0820 c3         1 ZUK      -0.067400
      9 CT           1.4960     1.8150    12.6930 ca         1 ZUK      -0.241000
     10 CH1          2.0940     2.9810    13.2000 ca         1 ZUK       0.110900
     11 CH2          2.0200     1.2820    11.5030 ca         1 ZUK       0.110900
     12 OXT          3.4500     5.6690     5.6230 o          1 ZUK      -0.735000
     13 NZ1          3.1300     3.5700    12.5710 nb         1 ZUK      -0.176500
     14 NZ2          3.0560     1.8650    10.8670 nb         1 ZUK      -0.176500
     15 HN           3.8130     2.5650     8.6870 hn         1 ZUK       0.388000
     16 HA           4.6760     4.5650     7.4570 h1         1 ZUK       0.042700
     17 HT           0.6610     1.3430    13.2020 ha         1 ZUK       0.123000
     18 HB           2.3470     4.6010     9.4230 hc         1 ZUK       0.039200
     19 HD           5.1610     2.9850     9.9560 hc         1 ZUK       0.059700
     20 HG           4.1050     5.7080    10.8860 hc         1 ZUK       0.033700
     21 HBA          3.0390     6.0820     8.8070 hc         1 ZUK       0.039200
     22 HDA          5.5480     3.8030    11.4420 hc         1 ZUK       0.059700
     23 HGA          5.3060     5.4410     9.6410 hc         1 ZUK       0.033700
     24 HH1          1.7420     3.4480    14.1190 h4         1 ZUK       0.015600
     25 HH2          1.6080     0.3800    11.0530 h4         1 ZUK       0.015600
     26 HNA          2.4920     2.6150     7.7660 hn         1 ZUK       0.388000
@<TRIPOS>BOND
     1     1     3 1   
     2     1     4 1   
     3     1    12 1   
     4     2     4 1   
     5     2    15 1   
     6     2    26 1   
     7     4     5 1   
     8     4    16 1   
     9     5     8 1   
    10     5    18 1   
    11     5    21 1   
    12     6     7 1   
    13     6     8 1   
    14     6    19 1   
    15     6    22 1   
    16     7    13 ar  
    17     7    14 ar  
    18     8    20 1   
    19     8    23 1   
    20     9    10 ar  
    21     9    11 ar  
    22     9    17 1   
    23    10    13 ar  
    24    10    24 1   
    25    11    14 ar  
    26    11    25 1   
@<TRIPOS>SUBSTRUCTURE
     1 ZUK         1 TEMP              0 ****  ****    0 ROOT
