@<TRIPOS>MOLECULE
ZUK
   26    26     1     0     0
SMALL
bcc


@<TRIPOS>ATOM
      1 C            2.8630     4.9260     6.5620 c          1 ZUK       0.930600
      2 N            3.3480     2.8340     7.7510 n8         1 ZUK      -0.894800
      3 O            1.7420     4.4480     6.2900 o          1 ZUK      -0.840300
      4 CA           3.6340     4.2630     7.7320 c3         1 ZUK       0.017500
      5 CB           3.2860     5.0290     9.0280 c3         1 ZUK      -0.093400
      6 CD           4.7590     3.6820    10.7100 c3         1 ZUK      -0.119700
      7 CE           3.6140     3.0130    11.4070 ca         1 ZUK       0.679300
      8 CG           4.3710     5.0350    10.1050 c3         1 ZUK      -0.067400
      9 CT           1.5370     1.8560    12.6370 ca         1 ZUK      -0.389600
     10 CH1          2.1440     2.9980    13.1350 ca         1 ZUK       0.439200
     11 CH2          2.0680     1.3490    11.4670 ca         1 ZUK       0.439200
     12 OXT          3.4060     5.9100     6.0220 o          1 ZUK      -0.840300
     13 NZ1          3.1730     3.5750    12.5310 nb         1 ZUK      -0.702500
     14 NZ2          3.0990     1.9190    10.8540 nb         1 ZUK      -0.702500
     15 HN           3.4860     2.4360     8.6710 hn         1 ZUK       0.332800
     16 HA           4.7050     4.4100     7.5460 h1         1 ZUK       0.042700
     17 HT           0.6980     1.3920    13.1350 ha         1 ZUK       0.141000
     18 HB           2.3420     4.6470     9.4310 hc         1 ZUK       0.039200
     19 HD           5.1630     3.0140     9.9490 hc         1 ZUK       0.059700
     20 HG           4.0570     5.6940    10.9180 hc         1 ZUK       0.033700
     21 HBA          3.1020     6.0800     8.7830 hc         1 ZUK       0.039200
     22 HDA          5.5560     3.8490    11.4380 hc         1 ZUK       0.059700
     23 HGA          5.2770     5.4830     9.6850 hc         1 ZUK       0.033700
     24 HH1          1.7920     3.4610    14.0500 h4         1 ZUK       0.015600
     25 HH2          1.6560     0.4590    11.0030 h4         1 ZUK       0.015600
     26 HNA          2.3600     2.7350     7.5470 hn         1 ZUK       0.332800
@<TRIPOS>BOND
     1     1     3 1   
     2     1     4 1   
     3     1    12 1   
     4     2     4 1   
     5     2    15 1   
     6     2    26 1   
     7     4     5 1   
     8     4    16 1   
     9     5     8 1   
    10     5    18 1   
    11     5    21 1   
    12     6     7 1   
    13     6     8 1   
    14     6    19 1   
    15     6    22 1   
    16     7    13 ar  
    17     7    14 ar  
    18     8    20 1   
    19     8    23 1   
    20     9    10 ar  
    21     9    11 ar  
    22     9    17 1   
    23    10    13 ar  
    24    10    24 1   
    25    11    14 ar  
    26    11    25 1   
@<TRIPOS>SUBSTRUCTURE
     1 ZUK         1 TEMP              0 ****  ****    0 ROOT
