@<TRIPOS>MOLECULE
ZUL
   36    38     1     0     0
SMALL
abcg2


@<TRIPOS>ATOM
      1 C10        -34.5280    17.2640    20.3160 ca         1 ZUL      -0.176000
      2 C13        -32.5220    18.8590    19.1720 cp         1 ZUL      -0.017000
      3 C15        -31.4500    19.6970    18.5850 cp         1 ZUL      -0.016000
      4 C17        -30.7330    21.4170    17.0300 ca         1 ZUL      -0.117000
      5 C20        -30.1250    19.5820    19.0220 ca         1 ZUL      -0.101500
      6 C02        -35.6300    13.0110    20.3880 ca         1 ZUL       0.175000
      7 C03        -35.1280    11.9440    21.1090 ca         1 ZUL      -0.222000
      8 C04        -33.8410    12.0820    21.6130 ca         1 ZUL      -0.034000
      9 C05        -33.0720    13.2290    21.4260 ca         1 ZUL      -0.209600
     10 C06        -33.6360    14.3150    20.6960 ca         1 ZUL       0.368000
     11 C07        -34.9320    14.1770    20.1690 ca         1 ZUL      -0.254000
     12 C09        -33.2520    16.7240    20.1100 ca         1 ZUL       0.353000
     13 C11        -34.7920    18.5750    19.9380 ca         1 ZUL      -0.085000
     14 C12        -33.8110    19.3730    19.3660 ca         1 ZUL      -0.163000
     15 C14        -32.2640    17.5400    19.5390 ca         1 ZUL      -0.159000
     16 C16        -31.7360    20.6290    17.5800 ca         1 ZUL      -0.101500
     17 C18        -29.4200    21.2920    17.4740 ca         1 ZUL      -0.123000
     18 C19        -29.1210    20.3700    18.4740 ca         1 ZUL      -0.117000
     19 N08        -32.8760    15.4410    20.4870 nu         1 ZUL      -1.002000
     20 O22        -30.8720    14.1610    21.5950 o          1 ZUL      -0.715000
     21 O23        -31.3500    12.3490    22.8100 o          1 ZUL      -0.715000
     22 H1         -35.3000    16.6830    20.7970 ha         1 ZUL       0.123000
     23 H2         -30.9760    22.1260    16.2480 ha         1 ZUL       0.104500
     24 H3         -29.8830    18.8830    19.8120 ha         1 ZUL       0.119000
     25 H4         -35.7150    11.0500    21.2610 ha         1 ZUL       0.111000
     26 H5         -33.4000    11.2740    22.1790 ha         1 ZUL       0.134000
     27 H6         -35.3800    14.9510    19.5660 ha         1 ZUL       0.119000
     28 H7         -35.7800    18.9840    20.1130 ha         1 ZUL       0.098000
     29 H8         -34.0320    20.3980    19.1000 ha         1 ZUL       0.100000
     30 H9         -31.2830    17.1140    19.3680 ha         1 ZUL       0.125000
     31 H10        -32.7500    20.7240    17.2130 ha         1 ZUL       0.119000
     32 H11        -28.6370    21.9060    17.0470 ha         1 ZUL       0.102000
     33 H12        -28.1040    20.2690    18.8330 ha         1 ZUL       0.104500
     34 H13        -31.8990    15.2770    20.7570 hn         1 ZUL       0.570000
     35 C21        -31.6590    13.2470    21.9940 c          1 ZUL       0.716600
     36 F01        -36.8780    12.9070    19.8520 f          1 ZUL      -0.215000
@<TRIPOS>BOND
     1     1    12 ar  
     2     1    13 ar  
     3     1    22 1   
     4     2     3 1   
     5     2    14 ar  
     6     2    15 ar  
     7     3     5 ar  
     8     3    16 ar  
     9     4    16 ar  
    10     4    17 ar  
    11     4    23 1   
    12     5    18 ar  
    13     5    24 1   
    14     6     7 ar  
    15     6    11 ar  
    16     6    36 1   
    17     7     8 ar  
    18     7    25 1   
    19     8     9 ar  
    20     8    26 1   
    21     9    10 ar  
    22     9    35 1   
    23    10    11 ar  
    24    10    19 1   
    25    11    27 1   
    26    12    15 ar  
    27    12    19 1   
    28    13    14 ar  
    29    13    28 1   
    30    14    29 1   
    31    15    30 1   
    32    16    31 1   
    33    17    18 ar  
    34    17    32 1   
    35    18    33 1   
    36    19    34 1   
    37    20    35 1   
    38    21    35 1   
@<TRIPOS>SUBSTRUCTURE
     1 ZUL         1 TEMP              0 ****  ****    0 ROOT
