@<TRIPOS>MOLECULE
ZUL
   36    38     1     0     0
SMALL
No Charge or Current Charge


@<TRIPOS>ATOM
      1 C10        -34.5080    17.2700    20.3860 ca         1 ZUL      -0.176000
      2 C13        -32.4950    18.8790    19.2010 cp         1 ZUL      -0.017000
      3 C15        -31.4280    19.7280    18.5790 cp         1 ZUL      -0.016000
      4 C17        -30.7480    21.5030    17.0160 ca         1 ZUL      -0.117000
      5 C20        -30.0660    19.5840    18.9470 ca         1 ZUL      -0.101500
      6 C02        -35.6400    12.9140    20.2680 ca         1 ZUL       0.175000
      7 C03        -35.1310    11.8830    21.0630 ca         1 ZUL      -0.222000
      8 C04        -33.8680    12.0210    21.6590 ca         1 ZUL      -0.034000
      9 C05        -33.1090    13.1990    21.4680 ca         1 ZUL      -0.209600
     10 C06        -33.6500    14.2440    20.6840 ca         1 ZUL       0.368000
     11 C07        -34.9040    14.0860    20.0730 ca         1 ZUL      -0.254000
     12 C09        -33.2380    16.7240    20.1320 ca         1 ZUL       0.353000
     13 C11        -34.7860    18.6020    20.0420 ca         1 ZUL      -0.085000
     14 C12        -33.7900    19.3950    19.4510 ca         1 ZUL      -0.163000
     15 C14        -32.2420    17.5300    19.5610 ca         1 ZUL      -0.159000
     16 C16        -31.7470    20.7060    17.6010 ca         1 ZUL      -0.101500
     17 C18        -29.4060    21.3410    17.3980 ca         1 ZUL      -0.123000
     18 C19        -29.0660    20.3810    18.3640 ca         1 ZUL      -0.117000
     19 N08        -32.9250    15.4110    20.4770 nu         1 ZUL      -1.002000
     20 O22        -30.8870    13.9940    21.5770 o          1 ZUL      -0.715000
     21 O23        -31.5490    12.6800    23.1440 o          1 ZUL      -0.715000
     22 H1         -35.2760    16.6730    20.8680 ha         1 ZUL       0.123000
     23 H2         -31.0140    22.2440    16.2660 ha         1 ZUL       0.104500
     24 H3         -29.7820    18.8560    19.7040 ha         1 ZUL       0.119000
     25 H4         -35.7080    10.9740    21.2090 ha         1 ZUL       0.111000
     26 H5         -33.4750    11.2050    22.2640 ha         1 ZUL       0.134000
     27 H6         -35.3080    14.8600    19.4310 ha         1 ZUL       0.119000
     28 H7         -35.7700    19.0220    20.2420 ha         1 ZUL       0.098000
     29 H8         -34.0210    20.4280    19.2050 ha         1 ZUL       0.100000
     30 H9         -31.2650    17.0980    19.3690 ha         1 ZUL       0.125000
     31 H10        -32.7780    20.8380    17.2820 ha         1 ZUL       0.119000
     32 H11        -28.6330    21.9580    16.9460 ha         1 ZUL       0.102000
     33 H12        -28.0280    20.2560    18.6630 ha         1 ZUL       0.104500
     34 H13        -31.9320    15.2570    20.7060 hn         1 ZUL       0.570000
     35 C21        -31.7480    13.3090    22.1150 c          1 ZUL       0.716600
     36 F01        -36.8470    12.7740    19.6780 f          1 ZUL      -0.215000
@<TRIPOS>BOND
     1     1    12 ar  
     2     1    13 ar  
     3     1    22 1   
     4     2     3 1   
     5     2    14 ar  
     6     2    15 ar  
     7     3     5 ar  
     8     3    16 ar  
     9     4    16 ar  
    10     4    17 ar  
    11     4    23 1   
    12     5    18 ar  
    13     5    24 1   
    14     6     7 ar  
    15     6    11 ar  
    16     6    36 1   
    17     7     8 ar  
    18     7    25 1   
    19     8     9 ar  
    20     8    26 1   
    21     9    10 ar  
    22     9    35 1   
    23    10    11 ar  
    24    10    19 1   
    25    11    27 1   
    26    12    15 ar  
    27    12    19 1   
    28    13    14 ar  
    29    13    28 1   
    30    14    29 1   
    31    15    30 1   
    32    16    31 1   
    33    17    18 ar  
    34    17    32 1   
    35    18    33 1   
    36    19    34 1   
    37    20    35 1   
    38    21    35 1   
@<TRIPOS>SUBSTRUCTURE
     1 ZUL         1 TEMP              0 ****  ****    0 ROOT
