@<TRIPOS>MOLECULE
ZUN
   50    52     1     0     0
SMALL
abcg2


@<TRIPOS>ATOM
      1 CAA          5.7620     4.4110     0.3810 c3         1 ZUN      -0.132400
      2 CAW          5.2730     3.0850    -0.0770 cc         1 ZUN       0.278300
      3 CAK          5.0550     1.9170     0.7020 cc         1 ZUN      -0.236000
      4 NAQ          4.9830     2.8640    -1.3270 nd         1 ZUN      -0.361300
      5 OAT          4.5710     1.5650    -1.4050 os         1 ZUN      -0.063700
      6 CAZ          4.6120     1.0080    -0.1940 cd         1 ZUN       0.195300
      7 CAM          4.1950    -0.4070    -0.0650 c3         1 ZUN      -0.195700
      8 CAU          2.6820    -0.5550    -0.1110 c          1 ZUN       0.618100
      9 OAB          1.9440     0.4030    -0.2920 o          1 ZUN      -0.582100
     10 N            2.2060    -1.7940     0.0610 n          1 ZUN      -0.396800
     11 CD2          2.9770    -3.0150     0.2430 c5         1 ZUN       0.070000
     12 CG           1.9870    -4.1010    -0.1650 c5         1 ZUN       0.155300
     13 OD1          1.8830    -4.2230    -1.5650 oh         1 ZUN      -0.650000
     14 CB           0.6730    -3.5380     0.3500 c5         1 ZUN      -0.082400
     15 CA           0.7760    -2.0340     0.0520 c5         1 ZUN       0.037700
     16 C            0.0740    -1.2180     1.1300 c          1 ZUN       0.599100
     17 O            0.5670    -1.0550     2.2350 o          1 ZUN      -0.604100
     18 NAR         -1.1400    -0.7700     0.7920 ns         1 ZUN      -0.496900
     19 CAL         -1.9740    -0.0110     1.7080 c3         1 ZUN       0.156300
     20 CAX         -3.2700     0.3500     1.0430 ca         1 ZUN      -0.117300
     21 CAE         -4.3990    -0.4490     1.1850 ca         1 ZUN      -0.090500
     22 CAG         -5.5890    -0.1390     0.5460 ca         1 ZUN      -0.101500
     23 CAF         -3.3680     1.4770     0.2330 ca         1 ZUN      -0.090500
     24 CAH         -4.5480     1.8010    -0.4160 ca         1 ZUN      -0.101500
     25 CAY         -5.6730     0.9890    -0.2680 ca         1 ZUN       0.208000
     26 NBB         -6.9080     1.3650    -0.8480 nh         1 ZUN      -0.270400
     27 OAS         -7.6630     0.2400    -1.1290 oh         1 ZUN      -0.459300
     28 OAD         -6.6920     2.0490    -2.0310 oh         1 ZUN      -0.459300
     29 HAA1         6.7640     4.3270     0.8020 hc         1 ZUN       0.055033
     30 HAA2         5.7930     5.1250    -0.4390 hc         1 ZUN       0.055033
     31 HAA3         5.1140     4.8090     1.1620 hc         1 ZUN       0.055033
     32 HAK          5.2040     1.7870     1.7610 ha         1 ZUN       0.152000
     33 HAM1         4.6460    -1.0090    -0.8590 hc         1 ZUN       0.080200
     34 HAM2         4.5790    -0.8060     0.8770 hc         1 ZUN       0.080200
     35 HD21         3.8770    -3.0260    -0.3750 h1         1 ZUN       0.053700
     36 HD22         3.2800    -3.1450     1.2860 h1         1 ZUN       0.053700
     37 HA           0.3590    -1.8020    -0.9330 h1         1 ZUN       0.079700
     38 HG           2.2390    -5.0570     0.3080 h1         1 ZUN       0.052700
     39 HD1          2.7320    -4.5150    -1.9120 ho         1 ZUN       0.445000
     40 HB1C        -0.2000    -3.9950    -0.1150 hc         1 ZUN       0.073700
     41 HB2C         0.6110    -3.7090     1.4260 hc         1 ZUN       0.073700
     42 HAR         -1.4610    -0.8890    -0.1550 hn         1 ZUN       0.323500
     43 HAL1        -2.1640    -0.6020     2.6070 h1         1 ZUN       0.059200
     44 HAL2        -1.4470     0.8920     2.0260 h1         1 ZUN       0.059200
     45 HAE         -4.3590    -1.3320     1.8110 ha         1 ZUN       0.121000
     46 HAF         -2.5070     2.1230     0.1040 ha         1 ZUN       0.121000
     47 HAG         -6.4460    -0.7800     0.6920 ha         1 ZUN       0.130000
     48 HAH         -4.5820     2.6900    -1.0290 ha         1 ZUN       0.130000
     49 HAD         -7.2720     2.8180    -1.9770 ho         1 ZUN       0.460000
     50 HAS         -8.5460     0.4510    -0.8020 ho         1 ZUN       0.460000
@<TRIPOS>BOND
     1     1     2 1   
     2     1    29 1   
     3     1    30 1   
     4     1    31 1   
     5     2     3 1   
     6     2     4 2   
     7     3     6 2   
     8     3    32 1   
     9     4     5 1   
    10     5     6 1   
    11     6     7 1   
    12     7     8 1   
    13     7    33 1   
    14     7    34 1   
    15     8     9 2   
    16     8    10 1   
    17    10    11 1   
    18    10    15 1   
    19    11    12 1   
    20    11    35 1   
    21    11    36 1   
    22    12    13 1   
    23    12    14 1   
    24    12    38 1   
    25    13    39 1   
    26    14    15 1   
    27    14    40 1   
    28    14    41 1   
    29    15    16 1   
    30    15    37 1   
    31    16    17 2   
    32    16    18 1   
    33    18    19 1   
    34    18    42 1   
    35    19    20 1   
    36    19    43 1   
    37    19    44 1   
    38    20    21 ar  
    39    20    23 ar  
    40    21    22 ar  
    41    21    45 1   
    42    22    25 ar  
    43    22    47 1   
    44    23    24 ar  
    45    23    46 1   
    46    24    25 ar  
    47    24    48 1   
    48    25    26 1   
    49    26    27 1   
    50    26    28 1   
    51    27    50 1   
    52    28    49 1   
@<TRIPOS>SUBSTRUCTURE
     1 ZUN         1 TEMP              0 ****  ****    0 ROOT
