@<TRIPOS>MOLECULE
ZUN
   50    52     1     0     0
SMALL
No Charge or Current Charge


@<TRIPOS>ATOM
      1 CAA          5.7250     2.5570     2.5470 c3         1 ZUN      -0.132400
      2 CAW          5.6310     2.0680     1.1320 cc         1 ZUN       0.278300
      3 CAK          4.9000     0.9250     0.7750 cc         1 ZUN      -0.236000
      4 NAQ          6.2200     2.6580     0.1050 nd         1 ZUN      -0.361300
      5 OAT          5.8440     1.8390    -1.0220 os         1 ZUN      -0.063700
      6 CAZ          5.0520     0.8170    -0.5660 cd         1 ZUN       0.195300
      7 CAM          4.5130    -0.1950    -1.5300 c3         1 ZUN      -0.195700
      8 CAU          2.9890    -0.2720    -1.4250 c          1 ZUN       0.618100
      9 OAB          2.2940     0.5580    -1.9950 o          1 ZUN      -0.582100
     10 N            2.4010    -1.2570    -0.6010 n          1 ZUN      -0.396800
     11 CD2          3.0800    -2.5110    -0.1910 c5         1 ZUN       0.070000
     12 CG           1.8950    -3.4390     0.2200 c5         1 ZUN       0.155300
     13 OD1          1.3520    -4.1590    -0.8930 oh         1 ZUN      -0.650000
     14 CB           0.8790    -2.4110     0.7710 c5         1 ZUN      -0.082400
     15 CA           0.9450    -1.2620    -0.2810 c5         1 ZUN       0.037700
     16 C            0.4020     0.0430     0.3840 c          1 ZUN       0.599100
     17 O            1.0420     0.9080     0.9690 o          1 ZUN      -0.604100
     18 NAR         -0.9650     0.1030     0.2250 ns         1 ZUN      -0.496900
     19 CAL         -1.7990     1.1900     0.7280 c3         1 ZUN       0.156300
     20 CAX         -3.2660     0.9300     0.4290 ca         1 ZUN      -0.117300
     21 CAE         -4.0590     0.2080     1.3400 ca         1 ZUN      -0.090500
     22 CAG         -5.4160    -0.0360     1.0610 ca         1 ZUN      -0.101500
     23 CAF         -3.8440     1.4030    -0.7620 ca         1 ZUN      -0.090500
     24 CAH         -5.2010     1.1580    -1.0390 ca         1 ZUN      -0.101500
     25 CAY         -6.0050     0.4310    -0.1340 ca         1 ZUN       0.208000
     26 NBB         -7.3890     0.1930    -0.4120 nh         1 ZUN      -0.270400
     27 OAS         -8.0760    -0.8570     0.2180 oh         1 ZUN      -0.459300
     28 OAD         -7.8830     0.2550    -1.7240 oh         1 ZUN      -0.459300
     29 HAA1         6.2460     1.8240     3.1750 hc         1 ZUN       0.055033
     30 HAA2         6.2740     3.5040     2.6050 hc         1 ZUN       0.055033
     31 HAA3         4.7260     2.7180     2.9680 hc         1 ZUN       0.055033
     32 HAK          4.3350     0.2840     1.4410 ha         1 ZUN       0.152000
     33 HAM1         4.7760     0.1050    -2.5500 hc         1 ZUN       0.080200
     34 HAM2         4.9830    -1.1550    -1.3020 hc         1 ZUN       0.080200
     35 HD21         3.6690    -2.9520    -1.0060 h1         1 ZUN       0.053700
     36 HD22         3.7500    -2.3250     0.6580 h1         1 ZUN       0.053700
     37 HA           0.3560    -1.4930    -1.1790 h1         1 ZUN       0.079700
     38 HG           2.2040    -4.1470     1.0020 h1         1 ZUN       0.052700
     39 HD1          2.0300    -4.8140    -1.1710 ho         1 ZUN       0.445000
     40 HB1C        -0.1290    -2.8270     0.8790 hc         1 ZUN       0.073700
     41 HB2C         1.1900    -2.0620     1.7630 hc         1 ZUN       0.073700
     42 HAR         -1.4140    -0.6570    -0.2710 hn         1 ZUN       0.323500
     43 HAL1        -1.6490     1.2840     1.8120 h1         1 ZUN       0.059200
     44 HAL2        -1.4820     2.1310     0.2590 h1         1 ZUN       0.059200
     45 HAE         -3.6260    -0.1650     2.2650 ha         1 ZUN       0.121000
     46 HAF         -3.2440     1.9630    -1.4770 ha         1 ZUN       0.121000
     47 HAG         -6.0110    -0.5910     1.7810 ha         1 ZUN       0.130000
     48 HAH         -5.6290     1.5380    -1.9620 ha         1 ZUN       0.130000
     49 HAD         -8.5900     0.9350    -1.6310 ho         1 ZUN       0.460000
     50 HAS         -8.8170    -0.3710     0.6480 ho         1 ZUN       0.460000
@<TRIPOS>BOND
     1     1     2 1   
     2     1    29 1   
     3     1    30 1   
     4     1    31 1   
     5     2     3 1   
     6     2     4 2   
     7     3     6 2   
     8     3    32 1   
     9     4     5 1   
    10     5     6 1   
    11     6     7 1   
    12     7     8 1   
    13     7    33 1   
    14     7    34 1   
    15     8     9 2   
    16     8    10 1   
    17    10    11 1   
    18    10    15 1   
    19    11    12 1   
    20    11    35 1   
    21    11    36 1   
    22    12    13 1   
    23    12    14 1   
    24    12    38 1   
    25    13    39 1   
    26    14    15 1   
    27    14    40 1   
    28    14    41 1   
    29    15    16 1   
    30    15    37 1   
    31    16    17 2   
    32    16    18 1   
    33    18    19 1   
    34    18    42 1   
    35    19    20 1   
    36    19    43 1   
    37    19    44 1   
    38    20    21 ar  
    39    20    23 ar  
    40    21    22 ar  
    41    21    45 1   
    42    22    25 ar  
    43    22    47 1   
    44    23    24 ar  
    45    23    46 1   
    46    24    25 ar  
    47    24    48 1   
    48    25    26 1   
    49    26    27 1   
    50    26    28 1   
    51    27    50 1   
    52    28    49 1   
@<TRIPOS>SUBSTRUCTURE
     1 ZUN         1 TEMP              0 ****  ****    0 ROOT
