@<TRIPOS>MOLECULE
ZUO
   53    57     1     0     0
SMALL
No Charge or Current Charge


@<TRIPOS>ATOM
      1 C1          -0.4020     6.4800    20.9560 c6         1 ZUO       0.193500
      2 C2          -0.8970     4.9980    20.9330 c6         1 ZUO       0.145600
      3 C3          -0.5450     4.7990    18.5680 c6         1 ZUO       0.145600
      4 O1           2.9460    12.5070    15.5150 os         1 ZUO      -0.444000
      5 C11          5.3980    11.0890    22.6300 cc         1 ZUO       0.242700
      6 C12          6.1610    12.2110    22.2600 cc         1 ZUO      -0.179000
      7 C13          6.9480    12.5400    23.3210 cd         1 ZUO      -0.180000
      8 C14          2.5840    10.1990    16.3290 c6         1 ZUO       0.164800
      9 C15          3.3420    11.1280    15.3340 c6         1 ZUO       0.146600
     10 C16          3.2230    12.9880    16.8520 c6         1 ZUO       0.147600
     11 C17          2.4560    12.1510    17.9270 c6         1 ZUO       0.179500
     12 C18          0.9320    12.4510    17.9200 c3         1 ZUO      -0.113100
     13 N            0.4720     6.8000    19.7740 nh         1 ZUO      -0.768300
     14 C           -1.5870     7.4830    21.0150 c3         1 ZUO      -0.112100
     15 O           -1.4860     4.6600    19.6560 os         1 ZUO      -0.442000
     16 C10          2.9070     9.0170    21.0610 ca         1 ZUO       0.412500
     17 C4          -0.0260     6.2630    18.4640 c6         1 ZUO       0.177800
     18 C5           1.3770     7.8760    19.8150 ca         1 ZUO       0.662900
     19 C6           1.5680     8.7360    18.7260 ca         1 ZUO      -0.336000
     20 C7           2.4830     9.7890    18.8350 ca         1 ZUO       0.437000
     21 C8           3.1720     9.9180    20.0600 ca         1 ZUO      -0.054600
     22 C9           4.4500    10.4890    21.7060 cc         1 ZUO       0.361800
     23 N1           4.1480    10.8560    20.4460 nd         1 ZUO      -0.556100
     24 N2           3.7040     9.3800    22.0870 na         1 ZUO      -0.405300
     25 N3           2.0370     8.0080    20.9770 nb         1 ZUO      -0.776000
     26 N4           6.6270    11.5930    24.3010 na         1 ZUO       0.006800
     27 N5           5.6570    10.6850    23.8670 nd         1 ZUO      -0.531800
     28 N6           2.6820    10.6780    17.7470 nh         1 ZUO      -0.781400
     29 H            0.1630     6.5950    21.8940 h1         1 ZUO       0.091700
     30 H6          -1.6400     4.8360    21.7270 h1         1 ZUO       0.054200
     31 H5          -0.0500     4.3230    21.1260 h1         1 ZUO       0.054200
     32 H7          -1.0360     4.5100    17.6280 h1         1 ZUO       0.051200
     33 H8           0.3000     4.1150    18.7340 h1         1 ZUO       0.051200
     34 H13          6.1140    12.7100    21.2970 ha         1 ZUO       0.161000
     35 H14          7.6780    13.3310    23.4610 h4         1 ZUO       0.157000
     36 H16          1.5290    10.1410    16.0230 h1         1 ZUO       0.047700
     37 H17          3.0040     9.1860    16.2420 h1         1 ZUO       0.047700
     38 H18          3.1260    10.8230    14.3010 h1         1 ZUO       0.051700
     39 H19          4.4260    11.0410    15.4950 h1         1 ZUO       0.051700
     40 H21          4.3050    12.9230    17.0390 h1         1 ZUO       0.055700
     41 H20          2.9350    14.0460    16.9230 h1         1 ZUO       0.055700
     42 H1           2.8390    12.4770    18.9060 h1         1 ZUO       0.106700
     43 H22          0.4140    11.8920    18.7080 hc         1 ZUO       0.042700
     44 H23          0.7420    13.5170    18.0940 hc         1 ZUO       0.042700
     45 H24          0.4710    12.1850    16.9610 hc         1 ZUO       0.042700
     46 H2          -2.2160     7.2950    21.8930 hc         1 ZUO       0.042033
     47 H3          -1.2280     8.5160    21.0830 hc         1 ZUO       0.042033
     48 H4          -2.2260     7.4070    20.1270 hc         1 ZUO       0.042033
     49 H10          0.7800     6.2790    17.7160 h1         1 ZUO       0.046700
     50 H9          -0.8370     6.9000    18.0830 h1         1 ZUO       0.046700
     51 H11          0.9950     8.6080    17.8180 ha         1 ZUO       0.119000
     52 H12          3.7530     8.9200    22.9830 hn         1 ZUO       0.376000
     53 H15          7.0300    11.5350    25.2370 hn         1 ZUO       0.374000
@<TRIPOS>BOND
     1     1     2 1   
     2     1    13 1   
     3     1    14 1   
     4     1    29 1   
     5     2    15 1   
     6     2    30 1   
     7     2    31 1   
     8     3    15 1   
     9     3    17 1   
    10     3    32 1   
    11     3    33 1   
    12     4     9 1   
    13     4    10 1   
    14     5     6 1   
    15     5    22 1   
    16     5    27 2   
    17     6     7 2   
    18     6    34 1   
    19     7    26 1   
    20     7    35 1   
    21     8     9 1   
    22     8    28 1   
    23     8    36 1   
    24     8    37 1   
    25     9    38 1   
    26     9    39 1   
    27    10    11 1   
    28    10    40 1   
    29    10    41 1   
    30    11    12 1   
    31    11    28 1   
    32    11    42 1   
    33    12    43 1   
    34    12    44 1   
    35    12    45 1   
    36    13    17 1   
    37    13    18 1   
    38    14    46 1   
    39    14    47 1   
    40    14    48 1   
    41    16    21 ar  
    42    16    24 1   
    43    16    25 ar  
    44    17    49 1   
    45    17    50 1   
    46    18    19 ar  
    47    18    25 ar  
    48    19    20 ar  
    49    19    51 1   
    50    20    21 ar  
    51    20    28 1   
    52    21    23 1   
    53    22    23 2   
    54    22    24 1   
    55    24    52 1   
    56    26    27 1   
    57    26    53 1   
@<TRIPOS>SUBSTRUCTURE
     1 ZUO         1 TEMP              0 ****  ****    0 ROOT
