@<TRIPOS>MOLECULE
ZUO
   53    57     1     0     0
SMALL
abcg2


@<TRIPOS>ATOM
      1 C1          -0.1260     6.2800    20.9210 c6         1 ZUO       0.193500
      2 C2          -0.5590     4.8380    20.7090 c6         1 ZUO       0.145600
      3 C3          -0.6730     5.0710    18.4230 c6         1 ZUO       0.145600
      4 O1           2.9560    12.2830    15.4170 os         1 ZUO      -0.444000
      5 C11          5.0920    11.3060    22.6080 cc         1 ZUO       0.242700
      6 C12          5.9000    12.4210    22.3120 cc         1 ZUO      -0.179000
      7 C13          6.5460    12.6880    23.4940 cd         1 ZUO      -0.180000
      8 C14          2.1500    10.2010    16.3730 c6         1 ZUO       0.164800
      9 C15          2.8820    10.8900    15.2360 c6         1 ZUO       0.146600
     10 C16          3.6420    12.5710    16.6120 c6         1 ZUO       0.147600
     11 C17          2.9270    12.0110    17.8310 c6         1 ZUO       0.179500
     12 C18          1.6070    12.7270    18.1110 c3         1 ZUO      -0.113100
     13 N            0.5250     6.7690    19.7040 nh         1 ZUO      -0.768300
     14 C           -1.2820     7.1800    21.3510 c3         1 ZUO      -0.112100
     15 O           -1.3810     4.6900    19.5760 os         1 ZUO      -0.442000
     16 C10          2.7330     9.1110    21.0330 ca         1 ZUO       0.412500
     17 C4          -0.2120     6.5160    18.4800 c6         1 ZUO       0.177800
     18 C5           1.3540     7.8640    19.8030 ca         1 ZUO       0.662900
     19 C6           1.5860     8.7050    18.6910 ca         1 ZUO      -0.336000
     20 C7           2.4690     9.7870    18.7460 ca         1 ZUO       0.437000
     21 C8           3.0740     9.9970    20.0070 ca         1 ZUO      -0.054600
     22 C9           4.1950    10.6040    21.7150 cc         1 ZUO       0.361800
     23 N1           3.9930    10.9110    20.4640 nd         1 ZUO      -0.556100
     24 N2           3.4580     9.5270    22.1120 na         1 ZUO      -0.405300
     25 N3           1.9190     8.0710    20.9920 nb         1 ZUO      -0.776000
     26 N4           6.1140    11.7730    24.3790 na         1 ZUO       0.006800
     27 N5           5.2350    10.9270    23.8690 nd         1 ZUO      -0.531800
     28 N6           2.7380    10.5660    17.6500 nh         1 ZUO      -0.781400
     29 H            0.6200     6.2670    21.7150 h1         1 ZUO       0.091700
     30 H6          -1.1260     4.4960    21.5760 h1         1 ZUO       0.054200
     31 H5           0.3340     4.2010    20.6180 h1         1 ZUO       0.054200
     32 H7          -1.3320     4.9360    17.5640 h1         1 ZUO       0.051200
     33 H8           0.2020     4.4200    18.2820 h1         1 ZUO       0.051200
     34 H13          5.9910    12.9460    21.3770 ha         1 ZUO       0.161000
     35 H14          7.2640    13.4460    23.7620 h4         1 ZUO       0.157000
     36 H16          1.0780    10.4340    16.3310 h1         1 ZUO       0.047700
     37 H17          2.2520     9.1260    16.2200 h1         1 ZUO       0.047700
     38 H18          2.3540    10.7010    14.3010 h1         1 ZUO       0.051700
     39 H19          3.8920    10.4630    15.1440 h1         1 ZUO       0.051700
     40 H21          4.6640    12.1680    16.5720 h1         1 ZUO       0.055700
     41 H20          3.7140    13.6570    16.6980 h1         1 ZUO       0.055700
     42 H1           3.5940    12.1620    18.6780 h1         1 ZUO       0.106700
     43 H22          1.1220    12.3180    18.9980 hc         1 ZUO       0.042700
     44 H23          1.7850    13.7880    18.2940 hc         1 ZUO       0.042700
     45 H24          0.9090    12.6460    17.2780 hc         1 ZUO       0.042700
     46 H2          -1.7260     6.8120    22.2780 hc         1 ZUO       0.042033
     47 H3          -0.9350     8.1970    21.5340 hc         1 ZUO       0.042033
     48 H4          -2.0730     7.2240    20.6010 hc         1 ZUO       0.042033
     49 H10          0.4340     6.6730    17.6170 h1         1 ZUO       0.046700
     50 H9          -1.0680     7.1960    18.3720 h1         1 ZUO       0.046700
     51 H11          1.0340     8.5320    17.7830 ha         1 ZUO       0.119000
     52 H12          3.4640     9.1050    23.0280 hn         1 ZUO       0.376000
     53 H15          6.3920    11.6840    25.3440 hn         1 ZUO       0.374000
@<TRIPOS>BOND
     1     1     2 1   
     2     1    13 1   
     3     1    14 1   
     4     1    29 1   
     5     2    15 1   
     6     2    30 1   
     7     2    31 1   
     8     3    15 1   
     9     3    17 1   
    10     3    32 1   
    11     3    33 1   
    12     4     9 1   
    13     4    10 1   
    14     5     6 1   
    15     5    22 1   
    16     5    27 2   
    17     6     7 2   
    18     6    34 1   
    19     7    26 1   
    20     7    35 1   
    21     8     9 1   
    22     8    28 1   
    23     8    36 1   
    24     8    37 1   
    25     9    38 1   
    26     9    39 1   
    27    10    11 1   
    28    10    40 1   
    29    10    41 1   
    30    11    12 1   
    31    11    28 1   
    32    11    42 1   
    33    12    43 1   
    34    12    44 1   
    35    12    45 1   
    36    13    17 1   
    37    13    18 1   
    38    14    46 1   
    39    14    47 1   
    40    14    48 1   
    41    16    21 ar  
    42    16    24 1   
    43    16    25 ar  
    44    17    49 1   
    45    17    50 1   
    46    18    19 ar  
    47    18    25 ar  
    48    19    20 ar  
    49    19    51 1   
    50    20    21 ar  
    51    20    28 1   
    52    21    23 1   
    53    22    23 2   
    54    22    24 1   
    55    24    52 1   
    56    26    27 1   
    57    26    53 1   
@<TRIPOS>SUBSTRUCTURE
     1 ZUO         1 TEMP              0 ****  ****    0 ROOT
