@<TRIPOS>MOLECULE
ZUP
   42    44     1     0     0
SMALL
No Charge or Current Charge


@<TRIPOS>ATOM
      1 C13         -4.7170    12.1470    31.3010 ca         1 ZUP      -0.062000
      2 C15         -4.3400    12.8850    33.5890 ca         1 ZUP       0.153100
      3 C20         -1.1390    13.8270    35.1530 ca         1 ZUP      -0.062300
      4 C21         -0.7500    13.4640    33.8480 ca         1 ZUP      -0.100000
      5 C22          0.2530    14.1880    33.1800 ca         1 ZUP      -0.115000
      6 C24          0.4910    15.6430    35.1150 ca         1 ZUP      -0.115000
      7 C04         -5.9540     7.0090    34.0070 ca         1 ZUP      -0.235600
      8 C05         -6.7640     5.9420    33.5640 ca         1 ZUP      -0.031000
      9 C06         -7.5980     6.1550    32.4570 ca         1 ZUP      -0.243000
     10 C07         -7.6000     7.4100    31.8350 ca         1 ZUP       0.354900
     11 C09         -6.0180     8.2240    33.2980 ca         1 ZUP       0.624900
     12 C11         -5.0080    10.5820    33.1490 ca         1 ZUP       0.385000
     13 C12         -5.0210    10.8590    31.7700 ca         1 ZUP      -0.197000
     14 C14         -4.3850    13.1580    32.2140 ca         1 ZUP      -0.209000
     15 C16         -4.6550    11.5920    34.0540 ca         1 ZUP      -0.265000
     16 C18         -3.6150    13.7310    35.8130 c3         1 ZUP       0.169600
     17 C19         -2.2290    13.0440    35.8780 c3         1 ZUP      -0.069100
     18 C23          0.8750    15.2770    33.8140 ca         1 ZUP      -0.121000
     19 C25         -0.5130    14.9200    35.7830 ca         1 ZUP      -0.100000
     20 N08         -6.8260     8.4310    32.2500 nb         1 ZUP      -0.777000
     21 N10         -5.2790     9.3210    33.6670 nu         1 ZUP      -0.958900
     22 O01         -4.7050     7.8170    35.8300 o          1 ZUP      -0.713000
     23 O03         -4.7220     5.6940    35.4980 o          1 ZUP      -0.713000
     24 O17         -3.9980    13.9220    34.4340 os         1 ZUP      -0.363100
     25 H131        -4.7340    12.3580    30.2330 ha         1 ZUP       0.095000
     26 H211        -1.2300    12.6250    33.3490 ha         1 ZUP       0.115000
     27 H221         0.5470    13.9040    32.1720 ha         1 ZUP       0.104500
     28 H241         0.9710    16.4870    35.6060 ha         1 ZUP       0.104500
     29 H051        -6.7550     4.9770    34.0670 ha         1 ZUP       0.134000
     30 H061        -8.2400     5.3610    32.0860 ha         1 ZUP       0.100000
     31 H071        -8.2420     7.6050    30.9770 h4         1 ZUP      -0.011900
     32 H121        -5.2540    10.0780    31.0550 ha         1 ZUP       0.147000
     33 H141        -4.1470    14.1550    31.8540 ha         1 ZUP       0.111000
     34 H161        -4.6430    11.3630    35.1130 ha         1 ZUP       0.127000
     35 H181        -3.5420    14.7060    36.3120 h1         1 ZUP       0.052700
     36 H182        -4.3630    13.1430    36.3610 h1         1 ZUP       0.052700
     37 H191        -2.3010    12.0270    35.4760 hc         1 ZUP       0.063200
     38 H192        -1.9560    12.9230    36.9330 hc         1 ZUP       0.063200
     39 H231         1.6510    15.8370    33.2970 ha         1 ZUP       0.101000
     40 H251        -0.8040    15.2110    36.7900 ha         1 ZUP       0.115000
     41 H101        -4.8960     9.1590    34.6050 hn         1 ZUP       0.567000
     42 C02         -5.0530     6.8310    35.1950 c          1 ZUP       0.721600
@<TRIPOS>BOND
     1     1    13 ar  
     2     1    14 ar  
     3     1    25 1   
     4     2    14 ar  
     5     2    15 ar  
     6     2    24 1   
     7     3     4 ar  
     8     3    17 1   
     9     3    19 ar  
    10     4     5 ar  
    11     4    26 1   
    12     5    18 ar  
    13     5    27 1   
    14     6    18 ar  
    15     6    19 ar  
    16     6    28 1   
    17     7     8 ar  
    18     7    11 ar  
    19     7    42 1   
    20     8     9 ar  
    21     8    29 1   
    22     9    10 ar  
    23     9    30 1   
    24    10    20 ar  
    25    10    31 1   
    26    11    20 ar  
    27    11    21 1   
    28    12    13 ar  
    29    12    15 ar  
    30    12    21 1   
    31    13    32 1   
    32    14    33 1   
    33    15    34 1   
    34    16    17 1   
    35    16    24 1   
    36    16    35 1   
    37    16    36 1   
    38    17    37 1   
    39    17    38 1   
    40    18    39 1   
    41    19    40 1   
    42    21    41 1   
    43    22    42 1   
    44    23    42 1   
@<TRIPOS>SUBSTRUCTURE
     1 ZUP         1 TEMP              0 ****  ****    0 ROOT
