@<TRIPOS>MOLECULE
ZUP
   42    44     1     0     0
SMALL
abcg2


@<TRIPOS>ATOM
      1 C13         -5.0990    12.3310    31.5020 ca         1 ZUP      -0.062000
      2 C15         -4.3780    12.9000    33.7160 ca         1 ZUP       0.153100
      3 C20         -1.0120    13.7180    35.0590 ca         1 ZUP      -0.062300
      4 C21         -0.7310    13.5010    33.7100 ca         1 ZUP      -0.100000
      5 C22          0.1820    14.3040    33.0320 ca         1 ZUP      -0.115000
      6 C24          0.5580    15.5650    35.0460 ca         1 ZUP      -0.115000
      7 C04         -6.1190     7.1280    34.1060 ca         1 ZUP      -0.235600
      8 C05         -6.7070     6.0030    33.5530 ca         1 ZUP      -0.031000
      9 C06         -7.1130     5.9810    32.2210 ca         1 ZUP      -0.243000
     10 C07         -6.9100     7.1290    31.4770 ca         1 ZUP       0.354900
     11 C09         -5.9520     8.2570    33.2440 ca         1 ZUP       0.624900
     12 C11         -5.1460    10.6470    33.2240 ca         1 ZUP       0.385000
     13 C12         -5.3720    11.0220    31.8940 ca         1 ZUP      -0.197000
     14 C14         -4.6070    13.2750    32.3880 ca         1 ZUP      -0.209000
     15 C16         -4.6410    11.6020    34.1290 ca         1 ZUP      -0.265000
     16 C18         -3.4090    13.5580    35.8350 c3         1 ZUP       0.169600
     17 C19         -2.0390    12.8810    35.7760 c3         1 ZUP      -0.069100
     18 C23          0.8290    15.3400    33.6990 ca         1 ZUP      -0.121000
     19 C25         -0.3550    14.7590    35.7180 ca         1 ZUP      -0.100000
     20 N08         -6.3480     8.2380    31.9630 nb         1 ZUP      -0.777000
     21 N10         -5.3720     9.3840    33.7580 nu         1 ZUP      -0.958900
     22 O01         -5.1170     8.1160    36.0460 o          1 ZUP      -0.713000
     23 O03         -5.9720     6.0590    36.2210 o          1 ZUP      -0.713000
     24 O17         -3.9190    13.8880    34.5390 os         1 ZUP      -0.363100
     25 H131        -5.2750    12.6150    30.4710 ha         1 ZUP       0.095000
     26 H211        -1.2350    12.6980    33.1850 ha         1 ZUP       0.115000
     27 H221         0.3870    14.1200    31.9850 ha         1 ZUP       0.104500
     28 H241         1.0620    16.3650    35.5740 ha         1 ZUP       0.104500
     29 H051        -6.8430     5.1390    34.1890 ha         1 ZUP       0.134000
     30 H061        -7.5710     5.1060    31.7810 ha         1 ZUP       0.100000
     31 H071        -7.2110     7.1700    30.4340 h4         1 ZUP      -0.011900
     32 H121        -5.7490    10.3020    31.1910 ha         1 ZUP       0.147000
     33 H141        -4.3940    14.2900    32.0780 ha         1 ZUP       0.111000
     34 H161        -4.4710    11.3000    35.1520 ha         1 ZUP       0.127000
     35 H181        -3.3300    14.5170    36.3450 h1         1 ZUP       0.052700
     36 H182        -4.1230    12.9390    36.3830 h1         1 ZUP       0.052700
     37 H191        -2.1300    11.9080    35.2910 hc         1 ZUP       0.063200
     38 H192        -1.7280    12.7010    36.8090 hc         1 ZUP       0.063200
     39 H231         1.5410    15.9650    33.1740 ha         1 ZUP       0.101000
     40 H251        -0.5600    14.9390    36.7670 ha         1 ZUP       0.115000
     41 H101        -5.1220     9.2340    34.7440 hn         1 ZUP       0.567000
     42 C02         -5.7050     7.0950    35.5740 c          1 ZUP       0.721600
@<TRIPOS>BOND
     1     1    13 ar  
     2     1    14 ar  
     3     1    25 1   
     4     2    14 ar  
     5     2    15 ar  
     6     2    24 1   
     7     3     4 ar  
     8     3    17 1   
     9     3    19 ar  
    10     4     5 ar  
    11     4    26 1   
    12     5    18 ar  
    13     5    27 1   
    14     6    18 ar  
    15     6    19 ar  
    16     6    28 1   
    17     7     8 ar  
    18     7    11 ar  
    19     7    42 1   
    20     8     9 ar  
    21     8    29 1   
    22     9    10 ar  
    23     9    30 1   
    24    10    20 ar  
    25    10    31 1   
    26    11    20 ar  
    27    11    21 1   
    28    12    13 ar  
    29    12    15 ar  
    30    12    21 1   
    31    13    32 1   
    32    14    33 1   
    33    15    34 1   
    34    16    17 1   
    35    16    24 1   
    36    16    35 1   
    37    16    36 1   
    38    17    37 1   
    39    17    38 1   
    40    18    39 1   
    41    19    40 1   
    42    21    41 1   
    43    22    42 1   
    44    23    42 1   
@<TRIPOS>SUBSTRUCTURE
     1 ZUP         1 TEMP              0 ****  ****    0 ROOT
