@<TRIPOS>MOLECULE
ZUQ
   36    39     1     0     0
SMALL
abcg2


@<TRIPOS>ATOM
      1 C1           0.0280     0.7100    -1.1100 ca         1 ZUQ      -0.241000
      2 C5          -1.2890    -0.5710     0.4200 ca         1 ZUQ      -0.288000
      3 C2          -1.1630     1.1780    -1.6220 ca         1 ZUQ       0.397900
      4 C10          4.7520    -0.8070     0.0150 ca         1 ZUQ       0.369900
      5 C6          -0.0320    -0.1920    -0.0400 ca         1 ZUQ       0.388000
      6 C8           2.3850    -0.3280     0.3590 ca         1 ZUQ       0.353000
      7 C13          2.7860     0.9870     0.4240 ca         1 ZUQ      -0.028900
      8 C9           3.4510    -1.2380     0.1500 ca         1 ZUQ       0.010000
      9 C4          -2.4210    -0.0310    -0.1860 ca         1 ZUQ       0.519900
     10 C12          4.1230     1.3140     0.2540 ca         1 ZUQ       0.537300
     11 C19         -4.9050    -0.2640    -0.2120 c          1 ZUQ       0.642100
     12 C22         -7.3240    -0.1300     0.6230 cx         1 ZUQ      -0.095900
     13 C23         -7.1660    -1.4580    -0.0190 cx         1 ZUQ      -0.095900
     14 C15          2.9820     3.1910     0.6200 c5         1 ZUQ       0.372600
     15 C21         -5.9820    -0.8140     0.6550 cx         1 ZUQ      -0.254700
     16 N3          -2.3720     0.8390    -1.1830 nb         1 ZUQ      -0.694000
     17 N11          5.1040     0.4890     0.0590 nb         1 ZUQ      -0.648000
     18 N7           1.0840    -0.7470     0.5370 nu         1 ZUQ      -0.979000
     19 N18         -3.6560    -0.4200     0.3240 ns         1 ZUQ      -0.328900
     20 O20         -5.1330     0.2600    -1.2840 o          1 ZUQ      -0.536100
     21 O14          2.0610     2.0970     0.6480 os         1 ZUQ      -0.322100
     22 O16          4.2700     2.6460     0.3560 os         1 ZUQ      -0.446300
     23 CL           3.0980    -2.9240     0.0560 cl         1 ZUQ      -0.174000
     24 H1           0.9610     1.0180    -1.5580 ha         1 ZUQ       0.131000
     25 H2          -1.1400     1.8770    -2.4510 h4         1 ZUQ       0.022100
     26 H5          -1.3850    -1.2760     1.2360 ha         1 ZUQ       0.118000
     27 H7           0.9490    -1.6030     1.0550 hn         1 ZUQ       0.511000
     28 H18         -3.6110    -0.9500     1.1800 hn         1 ZUQ       0.150000
     29 H21         -5.6760    -1.2360     1.6050 hc         1 ZUQ       0.082700
     30 H221        -7.4200     0.7370    -0.0180 hc         1 ZUQ       0.082950
     31 H222        -7.8590    -0.0660     1.5610 hc         1 ZUQ       0.082950
     32 H231        -7.5890    -2.3250     0.4700 hc         1 ZUQ       0.082950
     33 H232        -7.1540    -1.5050    -1.1000 hc         1 ZUQ       0.082950
     34 H151         2.7040     3.8840    -0.1750 h2         1 ZUQ       0.074700
     35 H152         2.9820     3.6900     1.5900 h2         1 ZUQ       0.074700
     36 H10          5.5450    -1.5250    -0.1460 h4         1 ZUQ       0.046100
@<TRIPOS>BOND
     1     1     3 ar  
     2     1     5 ar  
     3     1    24 1   
     4     2     5 ar  
     5     2     9 ar  
     6     2    26 1   
     7     3    16 ar  
     8     3    25 1   
     9     4     8 ar  
    10     4    17 ar  
    11     4    36 1   
    12     5    18 1   
    13     6     7 ar  
    14     6     8 ar  
    15     6    18 1   
    16     7    10 ar  
    17     7    21 1   
    18     8    23 1   
    19     9    16 ar  
    20     9    19 1   
    21    10    17 ar  
    22    10    22 1   
    23    11    15 1   
    24    11    19 1   
    25    11    20 2   
    26    12    13 1   
    27    12    15 1   
    28    12    30 1   
    29    12    31 1   
    30    13    15 1   
    31    13    32 1   
    32    13    33 1   
    33    14    21 1   
    34    14    22 1   
    35    14    34 1   
    36    14    35 1   
    37    15    29 1   
    38    18    27 1   
    39    19    28 1   
@<TRIPOS>SUBSTRUCTURE
     1 ZUQ         1 TEMP              0 ****  ****    0 ROOT
