@<TRIPOS>MOLECULE
ZUQ
   36    39     1     0     0
SMALL
No Charge or Current Charge


@<TRIPOS>ATOM
      1 C1          -0.0520     0.5430    -1.4090 ca         1 ZUQ      -0.241000
      2 C5          -1.2970    -0.7690     0.1630 ca         1 ZUQ      -0.288000
      3 C2          -1.2680     0.9530    -1.9640 ca         1 ZUQ       0.397900
      4 C10          4.8100    -0.6110     0.6000 ca         1 ZUQ       0.369900
      5 C6          -0.0710    -0.3170    -0.3120 ca         1 ZUQ       0.388000
      6 C8           2.4090    -0.2720     0.3650 ca         1 ZUQ       0.353000
      7 C13          2.7110     1.1050     0.3500 ca         1 ZUQ      -0.028900
      8 C9           3.5060    -1.1510     0.5140 ca         1 ZUQ       0.010000
      9 C4          -2.4620    -0.3310    -0.4680 ca         1 ZUQ       0.519900
     10 C12          4.0110     1.5270     0.4460 ca         1 ZUQ       0.537300
     11 C19         -4.9240    -0.8520    -0.6170 c          1 ZUQ       0.642100
     12 C22         -6.4520    -0.2420     1.4050 cx         1 ZUQ      -0.095900
     13 C23         -7.3620    -0.4580     0.2200 cx         1 ZUQ      -0.095900
     14 C15          2.7080     3.3110     0.4660 c5         1 ZUQ       0.372600
     15 C21         -6.0540    -1.2200     0.3160 cx         1 ZUQ      -0.254700
     16 N3          -2.4630     0.5360    -1.4970 nb         1 ZUQ      -0.694000
     17 N11          5.0770     0.7190     0.5630 nb         1 ZUQ      -0.648000
     18 N7           1.0950    -0.7750     0.2850 nu         1 ZUQ      -0.979000
     19 N18         -3.7170    -0.7020     0.0260 ns         1 ZUQ      -0.328900
     20 O20         -5.0920    -0.7410    -1.8240 o          1 ZUQ      -0.536100
     21 O14          1.8330     2.1490     0.2740 os         1 ZUQ      -0.322100
     22 O16          4.1110     2.8770     0.4110 os         1 ZUQ      -0.446300
     23 Cl           3.2750    -2.9060     0.5840 cl         1 ZUQ      -0.174000
     24 H1           0.8800     0.8920    -1.8360 ha         1 ZUQ       0.131000
     25 H2          -1.2890     1.6360    -2.8120 h4         1 ZUQ       0.022100
     26 H5          -1.3540    -1.4440     1.0110 ha         1 ZUQ       0.118000
     27 H7           0.9920    -1.6980     0.7100 hn         1 ZUQ       0.511000
     28 H18         -3.7320    -0.8950     1.0170 hn         1 ZUQ       0.150000
     29 H21         -6.1210    -2.2780     0.5560 hc         1 ZUQ       0.082700
     30 H221        -5.9240     0.7070     1.4680 hc         1 ZUQ       0.082950
     31 H222        -6.7650    -0.6490     2.3650 hc         1 ZUQ       0.082950
     32 H231        -8.2850    -1.0100     0.3840 hc         1 ZUQ       0.082950
     33 H232        -7.4400     0.3450    -0.5100 hc         1 ZUQ       0.082950
     34 H151         2.5150     4.0560    -0.3150 h2         1 ZUQ       0.074700
     35 H152         2.5080     3.7450     1.4530 h2         1 ZUQ       0.074700
     36 H10          5.6700    -1.2710     0.7060 h4         1 ZUQ       0.046100
@<TRIPOS>BOND
     1     1     3 ar  
     2     1     5 ar  
     3     1    24 1   
     4     2     5 ar  
     5     2     9 ar  
     6     2    26 1   
     7     3    16 ar  
     8     3    25 1   
     9     4     8 ar  
    10     4    17 ar  
    11     4    36 1   
    12     5    18 1   
    13     6     7 ar  
    14     6     8 ar  
    15     6    18 1   
    16     7    10 ar  
    17     7    21 1   
    18     8    23 1   
    19     9    16 ar  
    20     9    19 1   
    21    10    17 ar  
    22    10    22 1   
    23    11    15 1   
    24    11    19 1   
    25    11    20 2   
    26    12    13 1   
    27    12    15 1   
    28    12    30 1   
    29    12    31 1   
    30    13    15 1   
    31    13    32 1   
    32    13    33 1   
    33    14    21 1   
    34    14    22 1   
    35    14    34 1   
    36    14    35 1   
    37    15    29 1   
    38    18    27 1   
    39    19    28 1   
@<TRIPOS>SUBSTRUCTURE
     1 ZUQ         1 TEMP              0 ****  ****    0 ROOT
