@<TRIPOS>MOLECULE
ZUS
   43    45     1     0     0
SMALL
abcg2


@<TRIPOS>ATOM
      1 C10         -5.7810     4.9760    14.6830 ca         1 ZUS      -0.127000
      2 N12         -2.7360     6.3940    13.0770 ns         1 ZUS      -0.512900
      3 C13         -1.7200     7.1760    13.4820 c          1 ZUS       0.604100
      4 C17          1.5690     8.0530    12.2310 ca         1 ZUS       0.189100
      5 C20          3.5080     7.0010    11.2840 ca         1 ZUS      -0.010000
      6 C21          4.1540     8.2340    11.1890 ca         1 ZUS      -0.197800
      7 C22          3.4700     9.3700    11.6300 ca         1 ZUS       0.212100
      8 C24          6.0260     9.6400    10.6110 cc         1 ZUS      -0.330200
      9 C05         -5.2050     3.0860    16.0250 ca         1 ZUS      -0.272500
     10 C06         -6.1760     3.9020    15.4640 ca         1 ZUS      -0.003500
     11 C07         -3.8550     3.3390    15.8220 ca         1 ZUS      -0.003500
     12 C08         -3.4760     4.4200    15.0440 ca         1 ZUS      -0.127000
     13 C09         -4.4340     5.2480    14.4650 ca         1 ZUS      -0.050300
     14 C11         -4.0600     6.4530    13.6370 c3         1 ZUS       0.136300
     15 C14         -0.3970     6.8610    12.8010 c3         1 ZUS       0.075600
     16 C18          2.1910     9.2960    12.1460 ca         1 ZUS      -0.172000
     17 C19          2.2320     6.8970    11.7960 ca         1 ZUS      -0.230000
     18 C23          5.4740     8.4150    10.6670 cd         1 ZUS      -0.057200
     19 C25          5.3010    10.8050    11.0720 c          1 ZUS       0.673300
     20 N01         -5.1590     0.4470    16.1310 n8         1 ZUS      -1.006100
     21 O03         -4.8540     1.7070    18.2480 o          1 ZUS      -0.541500
     22 O04         -7.1250     1.7580    17.2020 o          1 ZUS      -0.541500
     23 O15          0.3330     8.0620    12.7470 os         1 ZUS      -0.306100
     24 O16         -1.8080     8.0330    14.3400 o          1 ZUS      -0.551100
     25 O26          4.0460    10.5920    11.5610 os         1 ZUS      -0.338200
     26 O27          5.7020    11.9400    11.0660 o          1 ZUS      -0.477000
     27 S02         -5.6770     1.7220    17.0470 sy         1 ZUS       1.125600
     28 H101        -6.5380     5.6090    14.2340 ha         1 ZUS       0.119500
     29 H121        -2.5790     5.7380    12.3270 hn         1 ZUS       0.315500
     30 H201         4.0230     6.1100    10.9470 ha         1 ZUS       0.119000
     31 H241         7.0210     9.8040    10.2220 ha         1 ZUS       0.215000
     32 H061        -7.2280     3.7060    15.6210 ha         1 ZUS       0.138500
     33 H071        -3.0970     2.7000    16.2570 ha         1 ZUS       0.138500
     34 H081        -2.4220     4.6060    14.8830 ha         1 ZUS       0.119500
     35 H112        -4.1280     7.3480    14.2560 h1         1 ZUS       0.075700
     36 H111        -4.7880     6.5770    12.8330 h1         1 ZUS       0.075700
     37 H142        -0.5470     6.4410    11.8010 h1         1 ZUS       0.052700
     38 H141         0.1170     6.1030    13.4060 h1         1 ZUS       0.052700
     39 H181         1.6780    10.1880    12.4810 ha         1 ZUS       0.159000
     40 H191         1.7640     5.9240    11.8500 ha         1 ZUS       0.120000
     41 H231         6.0220     7.5480    10.3160 ha         1 ZUS       0.191000
     42 H012        -5.0550    -0.3960    16.6900 hn         1 ZUS       0.474000
     43 H011        -5.7580     0.2690    15.3320 hn         1 ZUS       0.474000
@<TRIPOS>BOND
     1     1    10 ar  
     2     1    13 ar  
     3     1    28 1   
     4     2     3 1   
     5     2    14 1   
     6     2    29 1   
     7     3    15 1   
     8     3    24 2   
     9     4    16 ar  
    10     4    17 ar  
    11     4    23 1   
    12     5     6 ar  
    13     5    17 ar  
    14     5    30 1   
    15     6     7 ar  
    16     6    18 1   
    17     7    16 ar  
    18     7    25 1   
    19     8    18 2   
    20     8    19 1   
    21     8    31 1   
    22     9    10 ar  
    23     9    11 ar  
    24     9    27 1   
    25    10    32 1   
    26    11    12 ar  
    27    11    33 1   
    28    12    13 ar  
    29    12    34 1   
    30    13    14 1   
    31    14    35 1   
    32    14    36 1   
    33    15    23 1   
    34    15    37 1   
    35    15    38 1   
    36    16    39 1   
    37    17    40 1   
    38    18    41 1   
    39    19    25 1   
    40    19    26 2   
    41    20    27 1   
    42    20    42 1   
    43    20    43 1   
    44    21    27 2   
    45    22    27 2   
@<TRIPOS>SUBSTRUCTURE
     1 ZUS         1 TEMP              0 ****  ****    0 ROOT
