@<TRIPOS>MOLECULE
ZUS
   43    45     1     0     0
SMALL
No Charge or Current Charge


@<TRIPOS>ATOM
      1 C10         -5.1890     4.5840    14.2270 ca         1 ZUS      -0.127000
      2 N12         -2.5370     6.5680    14.1530 ns         1 ZUS      -0.512900
      3 C13         -1.7850     7.6280    13.6920 c          1 ZUS       0.604100
      4 C17          1.6000     8.2790    12.1030 ca         1 ZUS       0.189100
      5 C20          3.5430     6.9840    11.3860 ca         1 ZUS      -0.010000
      6 C21          4.1730     8.1680    10.9660 ca         1 ZUS      -0.197800
      7 C22          3.5160     9.4010    11.1150 ca         1 ZUS       0.212100
      8 C24          6.0710     9.3420     9.9800 cc         1 ZUS      -0.330200
      9 C05         -5.4630     2.8210    15.8900 ca         1 ZUS      -0.272500
     10 C06         -5.7050     3.3290    14.5960 ca         1 ZUS      -0.003500
     11 C07         -4.7030     3.5770    16.8060 ca         1 ZUS      -0.003500
     12 C08         -4.1910     4.8310    16.4290 ca         1 ZUS      -0.127000
     13 C09         -4.4330     5.3430    15.1400 ca         1 ZUS      -0.050300
     14 C11         -3.8730     6.6980    14.7350 c3         1 ZUS       0.136300
     15 C14         -0.4020     7.2400    13.1200 c3         1 ZUS       0.075600
     16 C18          2.2360     9.4550    11.6810 ca         1 ZUS      -0.172000
     17 C19          2.2580     7.0390    11.9540 ca         1 ZUS      -0.230000
     18 C23          5.5050     8.1520    10.3720 cd         1 ZUS      -0.057200
     19 C25          5.3700    10.6270    10.1430 c          1 ZUS       0.673300
     20 N01         -4.8630     0.2290    16.0210 n8         1 ZUS      -1.006100
     21 O03         -6.2670     1.1430    17.8260 o          1 ZUS      -0.541500
     22 O04         -7.1610     0.8030    15.4410 o          1 ZUS      -0.541500
     23 O15          0.3400     8.3900    12.6530 os         1 ZUS      -0.306100
     24 O16         -2.2030     8.7790    13.7450 o          1 ZUS      -0.551100
     25 O26          4.1210    10.5670    10.7080 os         1 ZUS      -0.338200
     26 O27          5.8660    11.6890     9.7960 o          1 ZUS      -0.477000
     27 S02         -6.1160     1.2200    16.3730 sy         1 ZUS       1.125600
     28 H101        -5.3790     4.9670    13.2270 ha         1 ZUS       0.119500
     29 H121        -2.1310     5.6420    14.0800 hn         1 ZUS       0.315500
     30 H201         4.0450     6.0250    11.2750 ha         1 ZUS       0.119000
     31 H241         7.0560     9.3990     9.5330 ha         1 ZUS       0.215000
     32 H061        -6.2900     2.7610    13.8750 ha         1 ZUS       0.138500
     33 H071        -4.5050     3.1980    17.8080 ha         1 ZUS       0.138500
     34 H081        -3.6040     5.4050    17.1420 ha         1 ZUS       0.119500
     35 H112        -3.8200     7.3550    15.6140 h1         1 ZUS       0.075700
     36 H111        -4.5410     7.1710    14.0020 h1         1 ZUS       0.075700
     37 H142        -0.5730     6.5310    12.3000 h1         1 ZUS       0.052700
     38 H141         0.1490     6.7200    13.9140 h1         1 ZUS       0.052700
     39 H181         1.7350    10.4120    11.7930 ha         1 ZUS       0.159000
     40 H191         1.7920     6.1110    12.2720 ha         1 ZUS       0.120000
     41 H231         6.0470     7.2170    10.2400 ha         1 ZUS       0.191000
     42 H012        -5.3280    -0.4740    15.4520 hn         1 ZUS       0.474000
     43 H011        -4.3350     0.7780    15.3470 hn         1 ZUS       0.474000
@<TRIPOS>BOND
     1     1    10 ar  
     2     1    13 ar  
     3     1    28 1   
     4     2     3 1   
     5     2    14 1   
     6     2    29 1   
     7     3    15 1   
     8     3    24 2   
     9     4    16 ar  
    10     4    17 ar  
    11     4    23 1   
    12     5     6 ar  
    13     5    17 ar  
    14     5    30 1   
    15     6     7 ar  
    16     6    18 1   
    17     7    16 ar  
    18     7    25 1   
    19     8    18 2   
    20     8    19 1   
    21     8    31 1   
    22     9    10 ar  
    23     9    11 ar  
    24     9    27 1   
    25    10    32 1   
    26    11    12 ar  
    27    11    33 1   
    28    12    13 ar  
    29    12    34 1   
    30    13    14 1   
    31    14    35 1   
    32    14    36 1   
    33    15    23 1   
    34    15    37 1   
    35    15    38 1   
    36    16    39 1   
    37    17    40 1   
    38    18    41 1   
    39    19    25 1   
    40    19    26 2   
    41    20    27 1   
    42    20    42 1   
    43    20    43 1   
    44    21    27 2   
    45    22    27 2   
@<TRIPOS>SUBSTRUCTURE
     1 ZUS         1 TEMP              0 ****  ****    0 ROOT
