@<TRIPOS>MOLECULE
ZUT
   40    42     1     0     0
SMALL
abcg2


@<TRIPOS>ATOM
      1 C10         -6.1710    11.5060    32.6710 ca         1 ZUT      -0.217000
      2 C13         -3.9580    13.0210    33.4520 ca         1 ZUT       0.160100
      3 C17         -0.8610    14.3850    34.8420 ca         1 ZUT      -0.082300
      4 C20          1.0170    16.4260    35.1840 ca         1 ZUT      -0.110000
      5 C21          1.1440    15.5320    34.1240 ca         1 ZUT      -0.120500
      6 C22          0.2080    14.5170    33.9560 ca         1 ZUT      -0.085000
      7 C02         -7.1030     7.2860    31.8780 ca         1 ZUT       0.174000
      8 C03         -7.3460     6.2230    32.7280 ca         1 ZUT      -0.222000
      9 C04         -6.8680     6.3410    34.0260 ca         1 ZUT      -0.034000
     10 C05         -6.1830     7.4650    34.4830 ca         1 ZUT      -0.209600
     11 C06         -5.9710     8.5470    33.5810 ca         1 ZUT       0.367000
     12 C07         -6.4390     8.4300    32.2600 ca         1 ZUT      -0.251000
     13 C09         -5.1950    10.9330    33.4940 ca         1 ZUT       0.386000
     14 C11         -6.0180    12.8220    32.2420 ca         1 ZUT      -0.052000
     15 C12         -4.9270    13.5870    32.6150 ca         1 ZUT      -0.205000
     16 C14         -4.0860    11.7060    33.8830 ca         1 ZUT      -0.257000
     17 C16         -1.8830    13.3060    34.6410 c3         1 ZUT       0.206900
     18 C18         -0.9800    15.2840    35.9020 ca         1 ZUT      -0.085000
     19 C19         -0.0460    16.3000    36.0740 ca         1 ZUT      -0.120500
     20 N08         -5.2700     9.6470    34.0150 nu         1 ZUT      -1.002000
     21 O15         -2.9150    13.8330    33.7870 os         1 ZUT      -0.363100
     22 O24         -4.8430     8.3560    36.2590 o          1 ZUT      -0.715000
     23 O25         -6.1220     6.5760    36.6870 o          1 ZUT      -0.715000
     24 H1          -7.0550    10.9540    32.3950 ha         1 ZUT       0.124000
     25 H2           1.7470    17.2150    35.3180 ha         1 ZUT       0.104000
     26 H3           1.9720    15.6230    33.4330 ha         1 ZUT       0.107500
     27 H4           0.3090    13.8180    33.1340 ha         1 ZUT       0.117500
     28 H5          -7.8770     5.3460    32.3850 ha         1 ZUT       0.111000
     29 H6          -7.0260     5.5360    34.7290 ha         1 ZUT       0.134000
     30 H7          -6.2600     9.2020    31.5280 ha         1 ZUT       0.120000
     31 H8          -6.7800    13.2590    31.6080 ha         1 ZUT       0.098000
     32 H9          -4.8090    14.6100    32.2820 ha         1 ZUT       0.113000
     33 H10         -3.3410    11.2490    34.5180 ha         1 ZUT       0.126000
     34 H11         -1.4340    12.4310    34.1660 h1         1 ZUT       0.049200
     35 H12         -2.3230    13.0040    35.5950 h1         1 ZUT       0.049200
     36 H13         -1.8050    15.1830    36.5970 ha         1 ZUT       0.117500
     37 H14         -0.1450    16.9900    36.9020 ha         1 ZUT       0.107500
     38 H15         -4.8430     9.4670    34.9320 hn         1 ZUT       0.569000
     39 C23         -5.6830     7.4650    35.9220 c          1 ZUT       0.716600
     40 F01         -7.5330     7.2010    30.5890 f          1 ZUT      -0.215000
@<TRIPOS>BOND
     1     1    13 ar  
     2     1    14 ar  
     3     1    24 1   
     4     2    15 ar  
     5     2    16 ar  
     6     2    21 1   
     7     3     6 ar  
     8     3    17 1   
     9     3    18 ar  
    10     4     5 ar  
    11     4    19 ar  
    12     4    25 1   
    13     5     6 ar  
    14     5    26 1   
    15     6    27 1   
    16     7     8 ar  
    17     7    12 ar  
    18     7    40 1   
    19     8     9 ar  
    20     8    28 1   
    21     9    10 ar  
    22     9    29 1   
    23    10    11 ar  
    24    10    39 1   
    25    11    12 ar  
    26    11    20 1   
    27    12    30 1   
    28    13    16 ar  
    29    13    20 1   
    30    14    15 ar  
    31    14    31 1   
    32    15    32 1   
    33    16    33 1   
    34    17    21 1   
    35    17    34 1   
    36    17    35 1   
    37    18    19 ar  
    38    18    36 1   
    39    19    37 1   
    40    20    38 1   
    41    22    39 1   
    42    23    39 1   
@<TRIPOS>SUBSTRUCTURE
     1 ZUT         1 TEMP              0 ****  ****    0 ROOT
