@<TRIPOS>MOLECULE
ZUT
   40    42     1     0     0
SMALL
No Charge or Current Charge


@<TRIPOS>ATOM
      1 C10         -6.2270    11.5100    32.7430 ca         1 ZUT      -0.217000
      2 C13         -3.9800    13.0150    33.4930 ca         1 ZUT       0.160100
      3 C17         -0.8030    14.4310    34.8280 ca         1 ZUT      -0.082300
      4 C20          1.0800    16.5030    35.1670 ca         1 ZUT      -0.110000
      5 C21          1.1940    15.6200    34.0800 ca         1 ZUT      -0.120500
      6 C22          0.2550    14.5870    33.9110 ca         1 ZUT      -0.085000
      7 C02         -7.0370     7.1860    31.7790 ca         1 ZUT       0.174000
      8 C03         -7.3320     6.1590    32.6800 ca         1 ZUT      -0.222000
      9 C04         -6.9420     6.2750    34.0230 ca         1 ZUT      -0.034000
     10 C05         -6.2570     7.4270    34.4750 ca         1 ZUT      -0.209600
     11 C06         -5.9900     8.4700    33.5570 ca         1 ZUT       0.367000
     12 C07         -6.3650     8.3330    32.2110 ca         1 ZUT      -0.251000
     13 C09         -5.2200    10.9210    33.5240 ca         1 ZUT       0.386000
     14 C11         -6.1090    12.8440    32.3220 ca         1 ZUT      -0.052000
     15 C12         -4.9820    13.5910    32.6960 ca         1 ZUT      -0.205000
     16 C14         -4.1070    11.6750    33.9130 ca         1 ZUT      -0.257000
     17 C16         -1.8200    13.3120    34.6460 c3         1 ZUT       0.206900
     18 C18         -0.9140    15.3220    35.9150 ca         1 ZUT      -0.085000
     19 C19          0.0260    16.3540    36.0840 ca         1 ZUT      -0.120500
     20 N08         -5.3170     9.6110    33.9740 nu         1 ZUT      -1.002000
     21 O15         -2.9020    13.8030    33.8350 os         1 ZUT      -0.363100
     22 O24         -4.8450     8.1610    36.2200 o          1 ZUT      -0.715000
     23 O25         -6.5060     6.9040    36.7500 o          1 ZUT      -0.715000
     24 H1          -7.1150    10.9450    32.4750 ha         1 ZUT       0.124000
     25 H2           1.8070    17.3020    35.2980 ha         1 ZUT       0.104000
     26 H3           2.0090    15.7350    33.3690 ha         1 ZUT       0.107500
     27 H4           0.3490    13.9080    33.0660 ha         1 ZUT       0.117500
     28 H5          -7.8540     5.2690    32.3370 ha         1 ZUT       0.111000
     29 H6          -7.1650     5.4620    34.7130 ha         1 ZUT       0.134000
     30 H7          -6.1230     9.1050    31.4890 ha         1 ZUT       0.120000
     31 H8          -6.8900    13.2980    31.7160 ha         1 ZUT       0.098000
     32 H9          -4.8860    14.6240    32.3730 ha         1 ZUT       0.113000
     33 H10         -3.3480    11.2070    34.5290 ha         1 ZUT       0.126000
     34 H11         -1.3340    12.4520    34.1660 h1         1 ZUT       0.049200
     35 H12         -2.1880    12.9900    35.6290 h1         1 ZUT       0.049200
     36 H13         -1.7280    15.2150    36.6280 ha         1 ZUT       0.117500
     37 H14         -0.0640    17.0390    36.9240 ha         1 ZUT       0.107500
     38 H15         -4.8380     9.4380    34.8690 hn         1 ZUT       0.569000
     39 C23         -5.8420     7.5140    35.9250 c          1 ZUT       0.716600
     40 F01         -7.3950     7.0670    30.4830 f          1 ZUT      -0.215000
@<TRIPOS>BOND
     1     1    13 ar  
     2     1    14 ar  
     3     1    24 1   
     4     2    15 ar  
     5     2    16 ar  
     6     2    21 1   
     7     3     6 ar  
     8     3    17 1   
     9     3    18 ar  
    10     4     5 ar  
    11     4    19 ar  
    12     4    25 1   
    13     5     6 ar  
    14     5    26 1   
    15     6    27 1   
    16     7     8 ar  
    17     7    12 ar  
    18     7    40 1   
    19     8     9 ar  
    20     8    28 1   
    21     9    10 ar  
    22     9    29 1   
    23    10    11 ar  
    24    10    39 1   
    25    11    12 ar  
    26    11    20 1   
    27    12    30 1   
    28    13    16 ar  
    29    13    20 1   
    30    14    15 ar  
    31    14    31 1   
    32    15    32 1   
    33    16    33 1   
    34    17    21 1   
    35    17    34 1   
    36    17    35 1   
    37    18    19 ar  
    38    18    36 1   
    39    19    37 1   
    40    20    38 1   
    41    22    39 1   
    42    23    39 1   
@<TRIPOS>SUBSTRUCTURE
     1 ZUT         1 TEMP              0 ****  ****    0 ROOT
