@<TRIPOS>MOLECULE
ZUW
   27    28     1     0     0
SMALL
No Charge or Current Charge


@<TRIPOS>ATOM
      1 N1         -39.0050   -10.8830   -39.7880 n          1 ZUW      -0.414800
      2 C4         -38.3880   -13.0800   -38.6030 c3         1 ZUW       0.144600
      3 C5         -40.0480   -11.9840   -37.0760 ca         1 ZUW       0.132100
      4 C6         -40.4710   -11.9080   -35.7370 ca         1 ZUW      -0.135000
      5 C7         -41.6230   -11.1910   -35.3820 ca         1 ZUW      -0.081000
      6 C8         -42.3650   -10.5350   -36.3730 ca         1 ZUW      -0.134000
      7 C10        -40.7940   -11.3120   -38.0850 ca         1 ZUW      -0.158300
      8 C1         -37.2470    -9.2600   -40.6430 c3         1 ZUW      -0.172100
      9 C2         -38.7120    -9.6470   -40.4160 c          1 ZUW       0.605100
     10 O1         -39.6020    -8.8880   -40.7780 o          1 ZUW      -0.603100
     11 C3         -37.9260   -11.8100   -39.3570 c3         1 ZUW       0.080000
     12 O2         -38.8970   -12.7200   -37.3030 os         1 ZUW      -0.355100
     13 C9         -41.9520   -10.5940   -37.7130 ca         1 ZUW      -0.070000
     14 C11        -40.4040   -11.3080   -39.5590 c3         1 ZUW       0.148300
     15 H1         -39.1270   -13.6460   -39.1830 h1         1 ZUW       0.059200
     16 H2         -37.5150   -13.7330   -38.4790 h1         1 ZUW       0.059200
     17 H3         -39.8970   -12.4170   -34.9660 ha         1 ZUW       0.125000
     18 H4         -41.9390   -11.1450   -34.3420 ha         1 ZUW       0.115000
     19 H5         -43.2580    -9.9760   -36.1030 ha         1 ZUW       0.117000
     20 H6         -37.1440    -8.2980   -41.1580 hc         1 ZUW       0.061700
     21 H7         -36.7230    -9.2500   -39.6820 hc         1 ZUW       0.061700
     22 H8         -36.7370   -10.0600   -41.1900 hc         1 ZUW       0.061700
     23 H9         -37.3750   -12.1320   -40.2500 h1         1 ZUW       0.053700
     24 H10        -37.2250   -11.2690   -38.7100 h1         1 ZUW       0.053700
     25 H11        -42.5380   -10.0710   -38.4670 ha         1 ZUW       0.115000
     26 H12        -41.0890   -10.6530   -40.1110 h1         1 ZUW       0.065200
     27 H13        -40.5590   -12.3080   -39.9830 h1         1 ZUW       0.065200
@<TRIPOS>BOND
     1     1     9 1   
     2     1    11 1   
     3     1    14 1   
     4     2    11 1   
     5     2    12 1   
     6     2    15 1   
     7     2    16 1   
     8     3     4 ar  
     9     3     7 ar  
    10     3    12 1   
    11     4     5 ar  
    12     4    17 1   
    13     5     6 ar  
    14     5    18 1   
    15     6    13 ar  
    16     6    19 1   
    17     7    13 ar  
    18     7    14 1   
    19     8     9 1   
    20     8    20 1   
    21     8    21 1   
    22     8    22 1   
    23     9    10 2   
    24    11    23 1   
    25    11    24 1   
    26    13    25 1   
    27    14    26 1   
    28    14    27 1   
@<TRIPOS>SUBSTRUCTURE
     1 ZUW         1 TEMP              0 ****  ****    0 ROOT
