@<TRIPOS>MOLECULE
ZUW
   27    28     1     0     0
SMALL
abcg2


@<TRIPOS>ATOM
      1 N1         -38.9960   -10.9490   -39.8650 n          1 ZUW      -0.414800
      2 C4         -38.4040   -12.9320   -38.5470 c3         1 ZUW       0.144600
      3 C5         -39.9200   -11.7060   -37.1460 ca         1 ZUW       0.132100
      4 C6         -40.3190   -11.6140   -35.8130 ca         1 ZUW      -0.135000
      5 C7         -41.5720   -11.1180   -35.4840 ca         1 ZUW      -0.081000
      6 C8         -42.4440   -10.7150   -36.4900 ca         1 ZUW      -0.134000
      7 C10        -40.7780   -11.2860   -38.1730 ca         1 ZUW      -0.158300
      8 C1         -37.2120    -9.3150   -40.3050 c3         1 ZUW      -0.172100
      9 C2         -38.6700    -9.6500   -40.0820 c          1 ZUW       0.605100
     10 O1         -39.5310    -8.7660   -40.1090 o          1 ZUW      -0.603100
     11 C3         -38.0260   -12.0270   -39.7100 c3         1 ZUW       0.080000
     12 O2         -38.6500   -12.1850   -37.3500 os         1 ZUW      -0.355100
     13 C9         -42.0360   -10.7980   -37.8160 ca         1 ZUW      -0.070000
     14 C11        -40.3920   -11.3020   -39.6400 c3         1 ZUW       0.148300
     15 H1         -39.2750   -13.5490   -38.7740 h1         1 ZUW       0.059200
     16 H2         -37.5690   -13.5950   -38.3260 h1         1 ZUW       0.059200
     17 H3         -39.6290   -11.9440   -35.0460 ha         1 ZUW       0.125000
     18 H4         -41.8670   -11.0540   -34.4440 ha         1 ZUW       0.115000
     19 H5         -43.4240   -10.3260   -36.2470 ha         1 ZUW       0.117000
     20 H6         -37.1470    -8.2710   -40.5980 hc         1 ZUW       0.061700
     21 H7         -36.6370    -9.4610   -39.3880 hc         1 ZUW       0.061700
     22 H8         -36.7670    -9.9390   -41.0810 hc         1 ZUW       0.061700
     23 H9         -37.9690   -12.6360   -40.6200 h1         1 ZUW       0.053700
     24 H10        -37.0440   -11.6050   -39.5260 h1         1 ZUW       0.053700
     25 H11        -42.6990   -10.4600   -38.6040 ha         1 ZUW       0.115000
     26 H12        -41.0140   -10.5890   -40.1720 h1         1 ZUW       0.065200
     27 H13        -40.5680   -12.2840   -40.0830 h1         1 ZUW       0.065200
@<TRIPOS>BOND
     1     1     9 1   
     2     1    11 1   
     3     1    14 1   
     4     2    11 1   
     5     2    12 1   
     6     2    15 1   
     7     2    16 1   
     8     3     4 ar  
     9     3     7 ar  
    10     3    12 1   
    11     4     5 ar  
    12     4    17 1   
    13     5     6 ar  
    14     5    18 1   
    15     6    13 ar  
    16     6    19 1   
    17     7    13 ar  
    18     7    14 1   
    19     8     9 1   
    20     8    20 1   
    21     8    21 1   
    22     8    22 1   
    23     9    10 2   
    24    11    23 1   
    25    11    24 1   
    26    13    25 1   
    27    14    26 1   
    28    14    27 1   
@<TRIPOS>SUBSTRUCTURE
     1 ZUW         1 TEMP              0 ****  ****    0 ROOT
