@<TRIPOS>MOLECULE
ZUZ
   31    31     1     0     0
SMALL
No Charge or Current Charge


@<TRIPOS>ATOM
      1 N1         -15.2310     4.8860   -28.7090 ns         1 ZUZ      -0.497900
      2 C4         -14.1470     5.7020   -28.4760 c          1 ZUZ       0.600100
      3 C5         -14.3000     7.1750   -28.9140 c6         1 ZUZ      -0.132700
      4 C6         -14.3020     8.1760   -27.7290 c6         1 ZUZ      -0.065400
      5 C7         -14.6910     9.6130   -28.1850 c6         1 ZUZ      -0.073900
      6 C8         -14.2950     9.9290   -29.6580 c6         1 ZUZ      -0.075400
      7 C10        -13.3510     7.5820   -30.0840 c6         1 ZUZ      -0.065400
      8 C1         -16.1000     1.5530   -25.1880 c3         1 ZUZ       0.153900
      9 O1         -15.6810     1.9190   -26.5170 os         1 ZUZ      -0.453100
     10 C2         -15.7780     3.2380   -26.8850 c          1 ZUZ       0.569100
     11 O2         -16.2110     4.1240   -26.1570 o          1 ZUZ      -0.475000
     12 C3         -15.2940     3.4530   -28.3370 c3         1 ZUZ       0.049000
     13 O3         -13.1250     5.2830   -27.9500 o          1 ZUZ      -0.599100
     14 C9         -13.0650     9.1100   -30.1160 c6         1 ZUZ      -0.073900
     15 H1         -16.0450     5.3160   -29.1360 hn         1 ZUZ       0.321500
     16 H2         -15.3140     7.2400   -29.3340 hc         1 ZUZ       0.046700
     17 H3         -14.9910     7.8380   -26.9420 hc         1 ZUZ       0.052700
     18 H4         -13.3020     8.1940   -27.2730 hc         1 ZUZ       0.052700
     19 H5         -14.2160    10.3390   -27.5110 hc         1 ZUZ       0.041200
     20 H6         -15.7740     9.7580   -28.0690 hc         1 ZUZ       0.041200
     21 H7         -14.0970    11.0040   -29.7670 hc         1 ZUZ       0.038200
     22 H8         -15.1420     9.7050   -30.3220 hc         1 ZUZ       0.038200
     23 H9         -13.7940     7.2630   -31.0380 hc         1 ZUZ       0.052700
     24 H10        -12.3940     7.0480   -30.0010 hc         1 ZUZ       0.052700
     25 H11        -15.9680     0.4750   -25.0290 h1         1 ZUZ       0.050700
     26 H12        -15.5090     2.0830   -24.4300 h1         1 ZUZ       0.050700
     27 H13        -17.1600     1.7920   -25.0320 h1         1 ZUZ       0.050700
     28 H14        -15.9860     2.9260   -29.0050 h1         1 ZUZ       0.082700
     29 H15        -14.3030     2.9910   -28.4390 h1         1 ZUZ       0.082700
     30 H16        -12.2130     9.3410   -29.4620 hc         1 ZUZ       0.041200
     31 H17        -12.7640     9.4100   -31.1290 hc         1 ZUZ       0.041200
@<TRIPOS>BOND
     1     1     2 1   
     2     1    12 1   
     3     1    15 1   
     4     2     3 1   
     5     2    13 2   
     6     3     4 1   
     7     3     7 1   
     8     3    16 1   
     9     4     5 1   
    10     4    17 1   
    11     4    18 1   
    12     5     6 1   
    13     5    19 1   
    14     5    20 1   
    15     6    14 1   
    16     6    21 1   
    17     6    22 1   
    18     7    14 1   
    19     7    23 1   
    20     7    24 1   
    21     8     9 1   
    22     8    25 1   
    23     8    26 1   
    24     8    27 1   
    25     9    10 1   
    26    10    11 2   
    27    10    12 1   
    28    12    28 1   
    29    12    29 1   
    30    14    30 1   
    31    14    31 1   
@<TRIPOS>SUBSTRUCTURE
     1 ZUZ         1 TEMP              0 ****  ****    0 ROOT
