@<TRIPOS>MOLECULE
ZUZ
   31    31     1     0     0
SMALL
abcg2


@<TRIPOS>ATOM
      1 N1         -15.3960     4.9200   -28.7950 ns         1 ZUZ      -0.497900
      2 C4         -14.3380     5.7140   -28.5200 c          1 ZUZ       0.600100
      3 C5         -14.4520     7.1550   -28.9760 c6         1 ZUZ      -0.132700
      4 C6         -14.4270     8.1040   -27.7690 c6         1 ZUZ      -0.065400
      5 C7         -14.7320     9.5490   -28.2080 c6         1 ZUZ      -0.073900
      6 C8         -14.2270     9.8480   -29.6340 c6         1 ZUZ      -0.075400
      7 C10        -13.3150     7.5120   -29.9620 c6         1 ZUZ      -0.065400
      8 C1         -15.8580     1.7100   -25.2100 c3         1 ZUZ       0.153900
      9 O1         -15.5660     2.0650   -26.5790 os         1 ZUZ      -0.453100
     10 C2         -15.7460     3.3440   -26.9190 c          1 ZUZ       0.569100
     11 O2         -16.1190     4.2040   -26.1580 o          1 ZUZ      -0.475000
     12 C3         -15.4380     3.5400   -28.3950 c3         1 ZUZ       0.049000
     13 O3         -13.3430     5.2840   -27.9330 o          1 ZUZ      -0.599100
     14 C9         -12.9870     9.0160   -29.9550 c6         1 ZUZ      -0.073900
     15 H1         -16.2130     5.3230   -29.2240 hn         1 ZUZ       0.321500
     16 H2         -15.4120     7.2820   -29.4820 hc         1 ZUZ       0.046700
     17 H3         -15.1470     7.7790   -27.0150 hc         1 ZUZ       0.052700
     18 H4         -13.4390     8.0450   -27.3070 hc         1 ZUZ       0.052700
     19 H5         -14.2680    10.2380   -27.4990 hc         1 ZUZ       0.041200
     20 H6         -15.8090     9.7270   -28.1590 hc         1 ZUZ       0.041200
     21 H7         -14.0150    10.9150   -29.7390 hc         1 ZUZ       0.038200
     22 H8         -15.0090     9.6140   -30.3620 hc         1 ZUZ       0.038200
     23 H9         -13.6120     7.1980   -30.9660 hc         1 ZUZ       0.052700
     24 H10        -12.4230     6.9410   -29.6970 hc         1 ZUZ       0.052700
     25 H11        -15.6520     0.6470   -25.1360 h1         1 ZUZ       0.050700
     26 H12        -15.2170     2.2720   -24.5330 h1         1 ZUZ       0.050700
     27 H13        -16.9040     1.9150   -24.9850 h1         1 ZUZ       0.050700
     28 H14        -16.2100     3.0250   -28.9670 h1         1 ZUZ       0.082700
     29 H15        -14.4880     3.0520   -28.6120 h1         1 ZUZ       0.082700
     30 H16        -12.2160     9.2240   -29.2060 hc         1 ZUZ       0.041200
     31 H17        -12.5660     9.3040   -30.9200 hc         1 ZUZ       0.041200
@<TRIPOS>BOND
     1     1     2 1   
     2     1    12 1   
     3     1    15 1   
     4     2     3 1   
     5     2    13 2   
     6     3     4 1   
     7     3     7 1   
     8     3    16 1   
     9     4     5 1   
    10     4    17 1   
    11     4    18 1   
    12     5     6 1   
    13     5    19 1   
    14     5    20 1   
    15     6    14 1   
    16     6    21 1   
    17     6    22 1   
    18     7    14 1   
    19     7    23 1   
    20     7    24 1   
    21     8     9 1   
    22     8    25 1   
    23     8    26 1   
    24     8    27 1   
    25     9    10 1   
    26    10    11 2   
    27    10    12 1   
    28    12    28 1   
    29    12    29 1   
    30    14    30 1   
    31    14    31 1   
@<TRIPOS>SUBSTRUCTURE
     1 ZUZ         1 TEMP              0 ****  ****    0 ROOT
