@<TRIPOS>MOLECULE
ZV1
   59    61     1     0     0
SMALL
No Charge or Current Charge


@<TRIPOS>ATOM
      1 C12        -37.1550    74.6860     4.0610 ca         1 ZV1      -0.144600
      2 C13        -37.5860    73.6950     3.1400 ca         1 ZV1       0.190000
      3 C14        -36.2330    74.2980     5.0630 ca         1 ZV1      -0.047000
      4 C15        -37.1060    72.3770     3.2270 ca         1 ZV1      -0.172000
      5 C16        -35.7580    72.9780     5.1430 ca         1 ZV1      -0.153000
      6 C17        -37.6220    76.1320     4.0350 c          1 ZV1       0.606700
      7 C20        -39.0220    77.8810     2.8040 c3         1 ZV1      -0.025300
      8 C21        -39.8950    78.3550     4.0190 c          1 ZV1       0.727000
      9 C24        -37.9200    78.8920     2.3650 c3         1 ZV1      -0.044400
     10 C25        -37.0950    78.4800     1.1130 c3         1 ZV1      -0.202400
     11 C26        -37.9920    78.3590    -0.1370 c          1 ZV1       0.710000
     12 C29        -35.5190    65.9330     4.2870 c3         1 ZV1       0.072600
     13 C30        -36.0000    67.3820     4.0430 c3         1 ZV1      -0.095400
     14 C31        -36.1370    68.2250     5.3350 c3         1 ZV1      -0.076400
     15 C32        -36.6480    69.6680     5.1070 c3         1 ZV1      -0.074400
     16 C02        -39.8260    63.0960     4.4720 cc         1 ZV1       0.678800
     17 C04        -38.2460    64.4170     3.2640 c          1 ZV1       0.615600
     18 C05        -37.3710    64.0960     6.7820 cc         1 ZV1      -0.194000
     19 C06        -36.2900    64.8740     6.4500 cd         1 ZV1      -0.140000
     20 C08        -37.6050    64.5020     4.5670 cc         1 ZV1      -0.315600
     21 C09        -38.1140    63.8990     5.6690 cd         1 ZV1       0.169400
     22 C34        -36.1900    72.0090     4.2250 ca         1 ZV1      -0.080300
     23 F35        -38.4700    73.9660     2.1550 f          1 ZV1      -0.157000
     24 N01        -39.2790    63.1500     5.6690 nd         1 ZV1      -0.663100
     25 N03        -39.3750    63.6730     3.3310 ns         1 ZV1      -0.446400
     26 N07        -36.4580    65.1160     5.0760 na         1 ZV1       0.066000
     27 N19        -38.4900    76.5120     3.0300 ns         1 ZV1      -0.415900
     28 O18        -37.2460    76.9340     4.8810 o          1 ZV1      -0.624100
     29 O22        -39.6390    79.4170     4.5740 o          1 ZV1      -0.745500
     30 O23        -40.8540    77.6630     4.3370 o          1 ZV1      -0.745500
     31 O27        -38.4580    77.2650    -0.4150 o          1 ZV1      -0.760000
     32 O28        -38.2210    79.3710    -0.7810 o          1 ZV1      -0.760000
     33 H1         -35.8760    75.0240     5.7920 ha         1 ZV1       0.141000
     34 H2         -37.4550    71.6370     2.5110 ha         1 ZV1       0.114000
     35 H3         -35.0520    72.7110     5.9260 ha         1 ZV1       0.095000
     36 H4         -39.7330    77.8030     1.9730 h1         1 ZV1       0.068700
     37 H5         -37.2260    79.0570     3.1980 hc         1 ZV1       0.039700
     38 H6         -38.3920    79.8610     2.1630 hc         1 ZV1       0.039700
     39 H7         -36.6170    77.5210     1.3490 hc         1 ZV1       0.003700
     40 H8         -36.3730    79.2960     0.9780 hc         1 ZV1       0.003700
     41 H9         -35.3640    65.4380     3.3200 h1         1 ZV1       0.059700
     42 H10        -34.5510    65.9540     4.8020 h1         1 ZV1       0.059700
     43 H11        -35.2850    67.8640     3.3660 hc         1 ZV1       0.064200
     44 H12        -36.9640    67.3590     3.5180 hc         1 ZV1       0.064200
     45 H13        -35.1690    68.2610     5.8510 hc         1 ZV1       0.034200
     46 H14        -36.8360    67.7240     6.0160 hc         1 ZV1       0.034200
     47 H15        -36.8310    70.1270     6.0860 hc         1 ZV1       0.051200
     48 H16        -37.6170    69.6330     4.5940 hc         1 ZV1       0.051200
     49 H19        -37.5940    63.7050     7.7690 ha         1 ZV1       0.142000
     50 H20        -35.4650    65.2600     7.0390 h4         1 ZV1       0.146000
     51 H21        -39.9020    63.5730     2.4800 hn         1 ZV1       0.320500
     52 H22        -41.1590    61.8250     5.1670 hn         1 ZV1       0.478000
     53 H23        -41.1450    61.9740     3.4600 hn         1 ZV1       0.478000
     54 H24        -38.7510    75.7910     2.3700 hn         1 ZV1       0.298500
     55 C33        -35.6810    70.5760     4.3140 c3         1 ZV1      -0.023100
     56 N11        -40.9470    62.3970     4.3580 nv         1 ZV1      -1.030200
     57 H17        -35.5420    70.1740     3.3030 hc         1 ZV1       0.034200
     58 H18        -34.6930    70.5560     4.7920 hc         1 ZV1       0.034200
     59 O17        -37.8480    64.9330     2.2320 o          1 ZV1      -0.557000
@<TRIPOS>BOND
     1     1     2 ar  
     2     1     3 ar  
     3     1     6 1   
     4     2     4 ar  
     5     2    23 1   
     6     3     5 ar  
     7     3    33 1   
     8     4    22 ar  
     9     4    34 1   
    10     5    22 ar  
    11     5    35 1   
    12     6    27 1   
    13     6    28 2   
    14     7     8 1   
    15     7     9 1   
    16     7    27 1   
    17     7    36 1   
    18     8    29 1   
    19     8    30 1   
    20     9    10 1   
    21     9    37 1   
    22     9    38 1   
    23    10    11 1   
    24    10    39 1   
    25    10    40 1   
    26    11    31 1   
    27    11    32 1   
    28    12    13 1   
    29    12    26 1   
    30    12    41 1   
    31    12    42 1   
    32    13    14 1   
    33    13    43 1   
    34    13    44 1   
    35    14    15 1   
    36    14    45 1   
    37    14    46 1   
    38    15    47 1   
    39    15    48 1   
    40    15    55 1   
    41    16    24 2   
    42    16    25 1   
    43    16    56 1   
    44    17    20 1   
    45    17    25 1   
    46    17    59 2   
    47    18    19 2   
    48    18    21 1   
    49    18    49 1   
    50    19    26 1   
    51    19    50 1   
    52    20    21 2   
    53    20    26 1   
    54    21    24 1   
    55    22    55 1   
    56    25    51 1   
    57    27    54 1   
    58    52    56 1   
    59    53    56 1   
    60    55    57 1   
    61    55    58 1   
@<TRIPOS>SUBSTRUCTURE
     1 ZV1         1 TEMP              0 ****  ****    0 ROOT
