@<TRIPOS>MOLECULE
ZV1
   59    61     1     0     0
SMALL
abcg2


@<TRIPOS>ATOM
      1 C12        -37.0100    74.6880     3.9680 ca         1 ZV1      -0.144600
      2 C13        -37.0510    73.8140     2.8930 ca         1 ZV1       0.190000
      3 C14        -36.5350    74.1650     5.1730 ca         1 ZV1      -0.047000
      4 C15        -36.6590    72.4910     2.9820 ca         1 ZV1      -0.172000
      5 C16        -36.1540    72.8430     5.2910 ca         1 ZV1      -0.153000
      6 C17        -37.3510    76.1500     3.9250 c          1 ZV1       0.606700
      7 C20        -38.8310    77.8860     3.0240 c3         1 ZV1      -0.025300
      8 C21        -39.3380    78.4420     4.3880 c          1 ZV1       0.727000
      9 C24        -37.8370    78.7870     2.2910 c3         1 ZV1      -0.044400
     10 C25        -37.4400    78.2810     0.9130 c3         1 ZV1      -0.202400
     11 C26        -38.5510    78.2470    -0.1580 c          1 ZV1       0.710000
     12 C29        -35.5420    66.0490     4.3950 c3         1 ZV1       0.072600
     13 C30        -36.0870    67.4330     4.0710 c3         1 ZV1      -0.095400
     14 C31        -36.4040    68.2690     5.3030 c3         1 ZV1      -0.076400
     15 C32        -36.8660    69.6890     4.9880 c3         1 ZV1      -0.074400
     16 C02        -39.7730    63.0280     4.4220 cc         1 ZV1       0.678800
     17 C04        -38.0550    64.4250     3.3520 c          1 ZV1       0.615600
     18 C05        -37.4400    64.2170     6.9050 cc         1 ZV1      -0.194000
     19 C06        -36.3970    65.0150     6.4910 cd         1 ZV1      -0.140000
     20 C08        -37.5610    64.5550     4.6790 cc         1 ZV1      -0.315600
     21 C09        -38.1910    63.9160     5.7470 cd         1 ZV1       0.169400
     22 C34        -36.2020    71.9840     4.1920 ca         1 ZV1      -0.080300
     23 F35        -37.4600    74.2540     1.6900 f          1 ZV1      -0.157000
     24 N01        -39.3050    63.1420     5.6270 nd         1 ZV1      -0.663100
     25 N03        -39.2000    63.6310     3.3340 ns         1 ZV1      -0.446400
     26 N07        -36.4580    65.2180     5.1550 na         1 ZV1       0.066000
     27 N19        -38.3620    76.5170     3.1350 ns         1 ZV1      -0.415900
     28 O18        -36.7080    76.9310     4.6150 o          1 ZV1      -0.624100
     29 O22        -39.3160    79.6820     4.5160 o          1 ZV1      -0.745500
     30 O23        -39.7850    77.6130     5.2000 o          1 ZV1      -0.745500
     31 O27        -38.3120    77.5600    -1.1740 o          1 ZV1      -0.760000
     32 O28        -39.5800    78.9250     0.0480 o          1 ZV1      -0.760000
     33 H1         -36.4680    74.8190     6.0330 ha         1 ZV1       0.141000
     34 H2         -36.6960    71.8640     2.0990 ha         1 ZV1       0.114000
     35 H3         -35.7960    72.4730     6.2440 ha         1 ZV1       0.095000
     36 H4         -39.7190    77.8230     2.3880 h1         1 ZV1       0.068700
     37 H5         -36.9420    78.9210     2.9020 hc         1 ZV1       0.039700
     38 H6         -38.2900    79.7720     2.1970 hc         1 ZV1       0.039700
     39 H7         -36.9840    77.2890     0.9810 hc         1 ZV1       0.003700
     40 H8         -36.6440    78.9280     0.5230 hc         1 ZV1       0.003700
     41 H9         -35.2750    65.5250     3.4790 h1         1 ZV1       0.059700
     42 H10        -34.6300    66.1380     4.9880 h1         1 ZV1       0.059700
     43 H11        -35.3260    67.9250     3.4600 hc         1 ZV1       0.064200
     44 H12        -36.9750    67.3410     3.4390 hc         1 ZV1       0.064200
     45 H13        -35.5200    68.3160     5.9490 hc         1 ZV1       0.034200
     46 H14        -37.1840    67.7750     5.8900 hc         1 ZV1       0.034200
     47 H15        -37.1760    70.1710     5.9190 hc         1 ZV1       0.051200
     48 H16        -37.7520    69.6620     4.3460 hc         1 ZV1       0.051200
     49 H19        -37.6300    63.8880     7.9140 ha         1 ZV1       0.142000
     50 H20        -35.5990    65.4540     7.0700 h4         1 ZV1       0.146000
     51 H21        -39.6250    63.5070     2.4240 hn         1 ZV1       0.320500
     52 H22        -41.2060    61.7300     4.9460 hn         1 ZV1       0.478000
     53 H23        -41.0730    61.9430     3.2740 hn         1 ZV1       0.478000
     54 H24        -38.8980    75.8040     2.6720 hn         1 ZV1       0.298500
     55 C33        -35.7850    70.5490     4.3250 c3         1 ZV1      -0.023100
     56 N11        -40.9120    62.3280     4.1910 nv         1 ZV1      -1.030200
     57 H17        -35.5350    70.1490     3.3410 hc         1 ZV1       0.034200
     58 H18        -34.8740    70.4960     4.9290 hc         1 ZV1       0.034200
     59 O17        -37.6140    64.9000     2.3140 o          1 ZV1      -0.557000
@<TRIPOS>BOND
     1     1     2 ar  
     2     1     3 ar  
     3     1     6 1   
     4     2     4 ar  
     5     2    23 1   
     6     3     5 ar  
     7     3    33 1   
     8     4    22 ar  
     9     4    34 1   
    10     5    22 ar  
    11     5    35 1   
    12     6    27 1   
    13     6    28 2   
    14     7     8 1   
    15     7     9 1   
    16     7    27 1   
    17     7    36 1   
    18     8    29 1   
    19     8    30 1   
    20     9    10 1   
    21     9    37 1   
    22     9    38 1   
    23    10    11 1   
    24    10    39 1   
    25    10    40 1   
    26    11    31 1   
    27    11    32 1   
    28    12    13 1   
    29    12    26 1   
    30    12    41 1   
    31    12    42 1   
    32    13    14 1   
    33    13    43 1   
    34    13    44 1   
    35    14    15 1   
    36    14    45 1   
    37    14    46 1   
    38    15    47 1   
    39    15    48 1   
    40    15    55 1   
    41    16    24 2   
    42    16    25 1   
    43    16    56 1   
    44    17    20 1   
    45    17    25 1   
    46    17    59 2   
    47    18    19 2   
    48    18    21 1   
    49    18    49 1   
    50    19    26 1   
    51    19    50 1   
    52    20    21 2   
    53    20    26 1   
    54    21    24 1   
    55    22    55 1   
    56    25    51 1   
    57    27    54 1   
    58    52    56 1   
    59    53    56 1   
    60    55    57 1   
    61    55    58 1   
@<TRIPOS>SUBSTRUCTURE
     1 ZV1         1 TEMP              0 ****  ****    0 ROOT
