@<TRIPOS>MOLECULE
ZV5
   23    24     1     0     0
SMALL
abcg2


@<TRIPOS>ATOM
      1 N1         -25.4680     7.0470   -49.2050 ns         1 ZV5      -0.484500
      2 N3         -24.2640     5.5170   -50.2310 ns         1 ZV5      -0.525900
      3 C4         -24.0980     6.8850   -52.2940 c6         1 ZV5      -0.064400
      4 C5         -23.2810     5.8640   -53.0970 c6         1 ZV5      -0.071400
      5 C6         -21.8580     5.7130   -52.5230 c6         1 ZV5       0.153800
      6 C7         -22.2740     7.0240   -50.5400 c6         1 ZV5       0.161800
      7 C1         -25.2550     5.6640   -49.3280 c          1 ZV5       0.615000
      8 C2         -24.6450     7.7790   -50.0080 c          1 ZV5       0.564000
      9 O2         -24.6040     8.9890   -50.0970 o          1 ZV5      -0.501000
     10 C3         -23.7880     6.7800   -50.7930 c5         1 ZV5       0.032400
     11 N2         -21.5150     6.9290   -51.7850 n7         1 ZV5      -0.860400
     12 H1         -26.1550     7.4380   -48.5770 hn         1 ZV5       0.356500
     13 H2         -23.9470     4.6070   -50.5210 hn         1 ZV5       0.349500
     14 H3         -23.8450     7.8980   -52.6060 hc         1 ZV5       0.067700
     15 H4         -25.1670     6.7430   -52.4560 hc         1 ZV5       0.067700
     16 H5         -23.2380     6.1970   -54.1350 hc         1 ZV5       0.047200
     17 H6         -23.7820     4.8940   -53.0950 hc         1 ZV5       0.047200
     18 H7         -21.8030     4.8210   -51.8800 h1         1 ZV5       0.032700
     19 H8         -21.1340     5.5730   -53.3250 h1         1 ZV5       0.032700
     20 H9         -21.9470     6.2950   -49.7870 h1         1 ZV5       0.053700
     21 H10        -22.1370     8.0240   -50.1260 h1         1 ZV5       0.053700
     22 H11        -20.5250     6.9470   -51.5700 hn         1 ZV5       0.422000
     23 O1         -25.8670     4.8060   -48.7150 o          1 ZV5      -0.549000
@<TRIPOS>BOND
     1     1     7 1   
     2     1     8 1   
     3     1    12 1   
     4     2     7 1   
     5     2    10 1   
     6     2    13 1   
     7     3     4 1   
     8     3    10 1   
     9     3    14 1   
    10     3    15 1   
    11     4     5 1   
    12     4    16 1   
    13     4    17 1   
    14     5    11 1   
    15     5    18 1   
    16     5    19 1   
    17     6    10 1   
    18     6    11 1   
    19     6    20 1   
    20     6    21 1   
    21     7    23 2   
    22     8     9 2   
    23     8    10 1   
    24    11    22 1   
@<TRIPOS>SUBSTRUCTURE
     1 ZV5         1 TEMP              0 ****  ****    0 ROOT
