@<TRIPOS>MOLECULE
ZV5
   23    24     1     0     0
SMALL
No Charge or Current Charge


@<TRIPOS>ATOM
      1 N1         -25.4150     6.9590   -49.1750 ns         1 ZV5      -0.484500
      2 N3         -24.2410     5.5260   -50.2690 ns         1 ZV5      -0.525900
      3 C4         -24.1120     6.9440   -52.3400 c6         1 ZV5      -0.064400
      4 C5         -23.2730     5.9130   -53.1500 c6         1 ZV5      -0.071400
      5 C6         -21.8820     5.6330   -52.5170 c6         1 ZV5       0.153800
      6 C7         -22.2960     7.1370   -50.5670 c6         1 ZV5       0.161800
      7 C1         -25.1850     5.6500   -49.2990 c          1 ZV5       0.615000
      8 C2         -24.7230     7.8050   -49.9660 c          1 ZV5       0.564000
      9 O2         -24.8300     9.0210   -49.9680 o          1 ZV5      -0.501000
     10 C3         -23.8190     6.8480   -50.8160 c5         1 ZV5       0.032400
     11 N2         -21.4080     6.7870   -51.7200 n7         1 ZV5      -0.860400
     12 H1         -26.0890     7.3020   -48.5090 hn         1 ZV5       0.356500
     13 H2         -23.9020     4.6090   -50.5320 hn         1 ZV5       0.349500
     14 H3         -23.8750     7.9600   -52.6870 hc         1 ZV5       0.067700
     15 H4         -25.1830     6.7940   -52.5370 hc         1 ZV5       0.067700
     16 H5         -23.1440     6.2850   -54.1750 hc         1 ZV5       0.047200
     17 H6         -23.8220     4.9650   -53.2370 hc         1 ZV5       0.047200
     18 H7         -21.9460     4.7510   -51.8620 h1         1 ZV5       0.032700
     19 H8         -21.1560     5.4000   -53.3100 h1         1 ZV5       0.032700
     20 H9         -21.9740     6.5820   -49.6730 h1         1 ZV5       0.053700
     21 H10        -22.1550     8.2050   -50.3400 h1         1 ZV5       0.053700
     22 H11        -20.4570     6.6060   -51.3720 hn         1 ZV5       0.422000
     23 O1         -25.7120     4.7520   -48.6740 o          1 ZV5      -0.549000
@<TRIPOS>BOND
     1     1     7 1   
     2     1     8 1   
     3     1    12 1   
     4     2     7 1   
     5     2    10 1   
     6     2    13 1   
     7     3     4 1   
     8     3    10 1   
     9     3    14 1   
    10     3    15 1   
    11     4     5 1   
    12     4    16 1   
    13     4    17 1   
    14     5    11 1   
    15     5    18 1   
    16     5    19 1   
    17     6    10 1   
    18     6    11 1   
    19     6    20 1   
    20     6    21 1   
    21     7    23 2   
    22     8     9 2   
    23     8    10 1   
    24    11    22 1   
@<TRIPOS>SUBSTRUCTURE
     1 ZV5         1 TEMP              0 ****  ****    0 ROOT
