@<TRIPOS>MOLECULE
ZV7
   19    18     1     0     0
SMALL
No Charge or Current Charge


@<TRIPOS>ATOM
      1 C26        -13.7580   -13.9540   -14.9080 c3         1 ZV7       0.088000
      2 C28        -15.2480   -15.9870   -15.0490 c          1 ZV7       0.576900
      3 C27        -14.4170   -14.9850   -15.8470 c3         1 ZV7      -0.232400
      4 C29        -13.5530   -11.6490   -15.9200 c          1 ZV7       0.621100
      5 C30        -12.7030   -10.6190   -16.6870 c3         1 ZV7       0.061600
      6 N2         -11.6360   -13.3230   -16.0450 n8         1 ZV7      -0.746200
      7 N4         -12.9700   -12.9330   -15.6470 n          1 ZV7      -0.301200
      8 O6         -14.7650   -16.9740   -14.5070 o          1 ZV7      -0.513100
      9 O7         -14.6970   -11.3760   -15.5650 o          1 ZV7      -0.581100
     10 Cl1        -12.9280   -10.6990   -18.5020 cl         1 ZV7      -0.260000
     11 H1         -14.5300   -13.4660   -14.2980 h1         1 ZV7       0.073700
     12 H2         -13.0920   -14.4780   -14.2080 h1         1 ZV7       0.073700
     13 H3         -16.3370   -15.7680   -14.9840 h4         1 ZV7      -0.008800
     14 H4         -15.0840   -14.4400   -16.5240 hc         1 ZV7       0.074200
     15 H5         -13.6400   -15.5190   -16.4060 hc         1 ZV7       0.074200
     16 H6         -11.6420   -10.7700   -16.4620 h1         1 ZV7       0.090700
     17 H7         -12.9940    -9.6160   -16.3550 h1         1 ZV7       0.090700
     18 H8         -11.0730   -13.5980   -15.2280 hn         1 ZV7       0.410500
     19 H9         -11.6670   -14.1440   -16.6660 hn         1 ZV7       0.410500
@<TRIPOS>BOND
     1     1     3 1   
     2     1     7 1   
     3     1    11 1   
     4     1    12 1   
     5     2     3 1   
     6     2     8 2   
     7     2    13 1   
     8     3    14 1   
     9     3    15 1   
    10     4     5 1   
    11     4     7 1   
    12     4     9 2   
    13     5    10 1   
    14     5    16 1   
    15     5    17 1   
    16     6     7 1   
    17     6    18 1   
    18     6    19 1   
@<TRIPOS>SUBSTRUCTURE
     1 ZV7         1 TEMP              0 ****  ****    0 ROOT
