@<TRIPOS>MOLECULE
ZV7
   19    18     1     0     0
SMALL
abcg2


@<TRIPOS>ATOM
      1 C26        -13.6610   -13.9730   -14.8560 c3         1 ZV7       0.088000
      2 C28        -15.2210   -15.9500   -15.1260 c          1 ZV7       0.576900
      3 C27        -14.5070   -14.8220   -15.7950 c3         1 ZV7      -0.232400
      4 C29        -13.4910   -11.7220   -15.7710 c          1 ZV7       0.621100
      5 C30        -12.6800   -10.7330   -16.5860 c3         1 ZV7       0.061600
      6 N2         -11.7320   -13.2400   -16.1820 n8         1 ZV7      -0.746200
      7 N4         -12.9340   -12.9330   -15.5630 n          1 ZV7      -0.301200
      8 O6         -15.1580   -16.2020   -13.9480 o          1 ZV7      -0.513100
      9 O7         -14.5900   -11.4180   -15.3400 o          1 ZV7      -0.581100
     10 CL1        -12.8670   -11.1230   -18.3280 cl         1 ZV7      -0.260000
     11 H1         -14.2860   -13.5120   -14.0930 h1         1 ZV7       0.073700
     12 H2         -12.9260   -14.5900   -14.3380 h1         1 ZV7       0.073700
     13 H3         -15.8390   -16.5660   -15.8040 h4         1 ZV7      -0.008800
     14 H4         -15.2640   -14.2120   -16.3000 hc         1 ZV7       0.074200
     15 H5         -13.9050   -15.2530   -16.6030 hc         1 ZV7       0.074200
     16 H6         -11.6200   -10.7490   -16.3550 h1         1 ZV7       0.090700
     17 H7         -13.0850    -9.7360   -16.4330 h1         1 ZV7       0.090700
     18 H8         -11.0910   -13.6140   -15.4930 hn         1 ZV7       0.410500
     19 H9         -11.8770   -13.9480   -16.8930 hn         1 ZV7       0.410500
@<TRIPOS>BOND
     1     1     3 1   
     2     1     7 1   
     3     1    11 1   
     4     1    12 1   
     5     2     3 1   
     6     2     8 2   
     7     2    13 1   
     8     3    14 1   
     9     3    15 1   
    10     4     5 1   
    11     4     7 1   
    12     4     9 2   
    13     5    10 1   
    14     5    16 1   
    15     5    17 1   
    16     6     7 1   
    17     6    18 1   
    18     6    19 1   
@<TRIPOS>SUBSTRUCTURE
     1 ZV7         1 TEMP              0 ****  ****    0 ROOT
