@<TRIPOS>MOLECULE
ZV8
   31    32     1     0     0
SMALL
No Charge or Current Charge


@<TRIPOS>ATOM
      1 N1         -15.4650     8.7020   -28.3260 nb         1 ZV8      -0.179000
      2 N3         -18.4660     4.9220   -28.9070 n7         1 ZV8      -0.843400
      3 C4         -13.2660     9.7320   -30.0950 c3         1 ZV8      -0.079433
      4 C5         -14.4970     7.9030   -28.8420 ca         1 ZV8       0.143300
      5 C6         -16.6750     8.1490   -28.1060 ca         1 ZV8       0.115900
      6 C7         -16.9310     6.8000   -28.3990 ca         1 ZV8      -0.229300
      7 C8         -15.8670     6.0460   -28.9250 ca         1 ZV8       0.128300
      8 C10        -17.3430     3.9800   -28.7160 c6         1 ZV8       0.148800
      9 C1         -12.5460     9.0980   -27.7470 c3         1 ZV8      -0.079433
     10 C2         -13.1110     8.5570   -29.0900 c3         1 ZV8      -0.083300
     11 C3         -12.0750     7.5520   -29.6790 c3         1 ZV8      -0.079433
     12 N2         -14.6550     6.5920   -29.1520 nb         1 ZV8      -0.184000
     13 C9         -16.0460     4.5780   -29.2990 c6         1 ZV8      -0.173700
     14 C11        -18.2940     6.1700   -28.1290 c6         1 ZV8       0.209100
     15 H1         -18.5060     5.1710   -29.9030 hn         1 ZV8       0.409000
     16 H3         -13.9250    10.5140   -29.6990 hc         1 ZV8       0.040478
     17 H4         -12.2950    10.1940   -30.3120 hc         1 ZV8       0.040478
     18 H5         -13.6920     9.3790   -31.0420 hc         1 ZV8       0.040478
     19 H6         -17.4430     8.7980   -27.6880 h4         1 ZV8       0.022100
     20 H7         -17.5630     3.0210   -29.2120 h1         1 ZV8       0.060200
     21 H8         -17.2100     3.7750   -27.6420 h1         1 ZV8       0.060200
     22 H9         -12.4560     8.2900   -27.0110 hc         1 ZV8       0.040478
     23 H10        -11.5510     9.5400   -27.8890 hc         1 ZV8       0.040478
     24 H11        -13.1950     9.8730   -27.3220 hc         1 ZV8       0.040478
     25 H12        -11.9090     6.7080   -28.9970 hc         1 ZV8       0.040478
     26 H13        -12.4130     7.1530   -30.6440 hc         1 ZV8       0.040478
     27 H14        -11.1060     8.0390   -29.8440 hc         1 ZV8       0.040478
     28 H15        -16.0650     4.4900   -30.3940 hc         1 ZV8       0.070700
     29 H16        -15.1850     3.9880   -28.9570 hc         1 ZV8       0.070700
     30 H17        -19.0930     6.8830   -28.3860 h1         1 ZV8       0.063200
     31 H18        -18.3790     5.9520   -27.0530 h1         1 ZV8       0.063200
@<TRIPOS>BOND
     1     1     4 ar  
     2     1     5 ar  
     3     2     8 1   
     4     2    14 1   
     5     2    15 1   
     6     3    10 1   
     7     3    16 1   
     8     3    17 1   
     9     3    18 1   
    10     4    10 1   
    11     4    12 ar  
    12     5     6 ar  
    13     5    19 1   
    14     6     7 ar  
    15     6    14 1   
    16     7    12 ar  
    17     7    13 1   
    18     8    13 1   
    19     8    20 1   
    20     8    21 1   
    21     9    10 1   
    22     9    22 1   
    23     9    23 1   
    24     9    24 1   
    25    10    11 1   
    26    11    25 1   
    27    11    26 1   
    28    11    27 1   
    29    13    28 1   
    30    13    29 1   
    31    14    30 1   
    32    14    31 1   
@<TRIPOS>SUBSTRUCTURE
     1 ZV8         1 TEMP              0 ****  ****    0 ROOT
