@<TRIPOS>MOLECULE
ZV8
   31    32     1     0     0
SMALL
abcg2


@<TRIPOS>ATOM
      1 N1         -15.4080     8.6640   -28.2730 nb         1 ZV8      -0.179000
      2 N3         -18.4800     4.9280   -28.8640 n7         1 ZV8      -0.843400
      3 C4         -13.2960     9.6550   -30.1190 c3         1 ZV8      -0.079433
      4 C5         -14.4630     7.8860   -28.8220 ca         1 ZV8       0.143300
      5 C6         -16.5990     8.1100   -28.0600 ca         1 ZV8       0.115900
      6 C7         -16.8920     6.7910   -28.3810 ca         1 ZV8      -0.229300
      7 C8         -15.8510     6.0610   -28.9480 ca         1 ZV8       0.128300
      8 C10        -17.3250     4.0310   -28.7620 c6         1 ZV8       0.148800
      9 C1         -12.5800     9.1420   -27.7650 c3         1 ZV8      -0.079433
     10 C2         -13.1050     8.5350   -29.0780 c3         1 ZV8      -0.083300
     11 C3         -12.0830     7.5270   -29.6080 c3         1 ZV8      -0.079433
     12 N2         -14.6480     6.6130   -29.1630 nb         1 ZV8      -0.184000
     13 C9         -16.0490     4.6300   -29.3600 c6         1 ZV8      -0.173700
     14 C11        -18.2500     6.1710   -28.1320 c6         1 ZV8       0.209100
     15 H1         -18.6480     5.1430   -29.8420 hn         1 ZV8       0.409000
     16 H3         -14.0060    10.4030   -29.7630 hc         1 ZV8       0.040478
     17 H4         -12.3410    10.1470   -30.3100 hc         1 ZV8       0.040478
     18 H5         -13.6670     9.2480   -31.0620 hc         1 ZV8       0.040478
     19 H6         -17.3600     8.7480   -27.6180 h4         1 ZV8       0.022100
     20 H7         -17.5610     3.0870   -29.2540 h1         1 ZV8       0.060200
     21 H8         -17.1700     3.8150   -27.7010 h1         1 ZV8       0.060200
     22 H9         -12.4390     8.3680   -27.0070 hc         1 ZV8       0.040478
     23 H10        -11.6170     9.6250   -27.9430 hc         1 ZV8       0.040478
     24 H11        -13.2720     9.8860   -27.3700 hc         1 ZV8       0.040478
     25 H12        -11.9210     6.7150   -28.8980 hc         1 ZV8       0.040478
     26 H13        -12.4060     7.0890   -30.5520 hc         1 ZV8       0.040478
     27 H14        -11.1300     8.0350   -29.7710 hc         1 ZV8       0.040478
     28 H15        -16.1010     4.5960   -30.4540 hc         1 ZV8       0.070700
     29 H16        -15.1670     4.0510   -29.0740 hc         1 ZV8       0.070700
     30 H17        -19.0340     6.8840   -28.3890 h1         1 ZV8       0.063200
     31 H18        -18.3510     5.9640   -27.0610 h1         1 ZV8       0.063200
@<TRIPOS>BOND
     1     1     4 ar  
     2     1     5 ar  
     3     2     8 1   
     4     2    14 1   
     5     2    15 1   
     6     3    10 1   
     7     3    16 1   
     8     3    17 1   
     9     3    18 1   
    10     4    10 1   
    11     4    12 ar  
    12     5     6 ar  
    13     5    19 1   
    14     6     7 ar  
    15     6    14 1   
    16     7    12 ar  
    17     7    13 1   
    18     8    13 1   
    19     8    20 1   
    20     8    21 1   
    21     9    10 1   
    22     9    22 1   
    23     9    23 1   
    24     9    24 1   
    25    10    11 1   
    26    11    25 1   
    27    11    26 1   
    28    11    27 1   
    29    13    28 1   
    30    13    29 1   
    31    14    30 1   
    32    14    31 1   
@<TRIPOS>SUBSTRUCTURE
     1 ZV8         1 TEMP              0 ****  ****    0 ROOT
