@<TRIPOS>MOLECULE
ZVB
   24    25     1     0     0
SMALL
No Charge or Current Charge


@<TRIPOS>ATOM
      1 N1          -9.5250    23.8750   -20.3780 nb         1 ZVB      -0.625000
      2 C4         -12.8010    22.5950   -19.4940 cc         1 ZVB      -0.045300
      3 C5         -11.6450    23.3080   -19.1900 cd         1 ZVB      -0.343800
      4 C6         -10.7350    23.2970   -20.2950 ca         1 ZVB       0.342800
      5 C7          -8.8890    23.6900   -21.5660 ca         1 ZVB       0.309900
      6 C8          -9.4450    22.9490   -22.6420 ca         1 ZVB      -0.152000
      7 C10        -11.3530    22.5670   -21.2720 ca         1 ZVB      -0.093200
      8 C1         -13.7760    22.4280   -17.1530 c3         1 ZVB      -0.085600
      9 C2         -14.0360    22.3160   -18.6710 c3         1 ZVB      -0.008500
     10 C3         -15.2100    23.2170   -19.1090 c3         1 ZVB      -0.085600
     11 C9         -10.7230    22.3610   -22.5040 ca         1 ZVB      -0.089000
     12 N2         -12.5910    22.1360   -20.8130 na         1 ZVB      -0.229700
     13 H1         -11.4510    23.8090   -18.2490 ha         1 ZVB       0.215000
     14 H2          -7.9050    24.1480   -21.6620 h4         1 ZVB       0.016100
     15 H3          -8.8850    22.8390   -23.5670 ha         1 ZVB       0.119000
     16 H4         -14.6670    22.1350   -16.5850 hc         1 ZVB       0.040200
     17 H5         -12.9520    21.7700   -16.8530 hc         1 ZVB       0.040200
     18 H6         -13.5160    23.4560   -16.8730 hc         1 ZVB       0.040200
     19 H7         -14.3380    21.2780   -18.8640 hc         1 ZVB       0.049700
     20 H8         -16.1180    22.9770   -18.5430 hc         1 ZVB       0.040200
     21 H9         -14.9710    24.2750   -18.9440 hc         1 ZVB       0.040200
     22 H10        -15.4290    23.0780   -20.1750 hc         1 ZVB       0.040200
     23 H11        -11.1850    21.7860   -23.3030 ha         1 ZVB       0.116000
     24 H12        -13.2470    21.5740   -21.3460 hn         1 ZVB       0.348000
@<TRIPOS>BOND
     1     1     4 ar  
     2     1     5 ar  
     3     2     3 2   
     4     2     9 1   
     5     2    12 1   
     6     3     4 1   
     7     3    13 1   
     8     4     7 ar  
     9     5     6 ar  
    10     5    14 1   
    11     6    11 ar  
    12     6    15 1   
    13     7    11 ar  
    14     7    12 1   
    15     8     9 1   
    16     8    16 1   
    17     8    17 1   
    18     8    18 1   
    19     9    10 1   
    20     9    19 1   
    21    10    20 1   
    22    10    21 1   
    23    10    22 1   
    24    11    23 1   
    25    12    24 1   
@<TRIPOS>SUBSTRUCTURE
     1 ZVB         1 TEMP              0 ****  ****    0 ROOT
