@<TRIPOS>MOLECULE
ZVB
   24    25     1     0     0
SMALL
abcg2


@<TRIPOS>ATOM
      1 N1          -9.4830    23.7910   -20.3670 nb         1 ZVB      -0.625000
      2 C4         -12.7240    22.5900   -19.4420 cc         1 ZVB      -0.045300
      3 C5         -11.5770    23.2540   -19.0740 cd         1 ZVB      -0.343800
      4 C6         -10.7120    23.2700   -20.2130 ca         1 ZVB       0.342800
      5 C7          -8.9230    23.6360   -21.5670 ca         1 ZVB       0.309900
      6 C8          -9.5300    22.9770   -22.6450 ca         1 ZVB      -0.152000
      7 C10        -11.3960    22.5880   -21.2620 ca         1 ZVB      -0.093200
      8 C1         -13.7900    22.5030   -17.1710 c3         1 ZVB      -0.085600
      9 C2         -13.9770    22.2970   -18.6730 c3         1 ZVB      -0.008500
     10 C3         -15.1520    23.1380   -19.2020 c3         1 ZVB      -0.085600
     11 C9         -10.8010    22.4330   -22.5030 ca         1 ZVB      -0.089000
     12 N2         -12.6090    22.1930   -20.7600 na         1 ZVB      -0.229700
     13 H1         -11.3730    23.6800   -18.1060 ha         1 ZVB       0.215000
     14 H2          -7.9300    24.0560   -21.6920 h4         1 ZVB       0.016100
     15 H3          -8.9990    22.8970   -23.5840 ha         1 ZVB       0.119000
     16 H4         -14.7070    22.2380   -16.6430 hc         1 ZVB       0.040200
     17 H5         -12.9790    21.8870   -16.7810 hc         1 ZVB       0.040200
     18 H6         -13.5640    23.5480   -16.9460 hc         1 ZVB       0.040200
     19 H7         -14.2220    21.2430   -18.8480 hc         1 ZVB       0.049700
     20 H8         -16.0720    22.8660   -18.6820 hc         1 ZVB       0.040200
     21 H9         -14.9630    24.2010   -19.0340 hc         1 ZVB       0.040200
     22 H10        -15.3050    22.9820   -20.2710 hc         1 ZVB       0.040200
     23 H11        -11.2950    21.9180   -23.3170 ha         1 ZVB       0.116000
     24 H12        -13.3100    21.6780   -21.2680 hn         1 ZVB       0.348000
@<TRIPOS>BOND
     1     1     4 ar  
     2     1     5 ar  
     3     2     3 2   
     4     2     9 1   
     5     2    12 1   
     6     3     4 1   
     7     3    13 1   
     8     4     7 ar  
     9     5     6 ar  
    10     5    14 1   
    11     6    11 ar  
    12     6    15 1   
    13     7    11 ar  
    14     7    12 1   
    15     8     9 1   
    16     8    16 1   
    17     8    17 1   
    18     8    18 1   
    19     9    10 1   
    20     9    19 1   
    21    10    20 1   
    22    10    21 1   
    23    10    22 1   
    24    11    23 1   
    25    12    24 1   
@<TRIPOS>SUBSTRUCTURE
     1 ZVB         1 TEMP              0 ****  ****    0 ROOT
