@<TRIPOS>MOLECULE
ZVE
   30    31     1     0     0
SMALL
No Charge or Current Charge


@<TRIPOS>ATOM
      1 N1         -35.3890     7.9980   -47.7750 na         1 ZVE      -0.153500
      2 N3         -40.0100     7.9440   -48.4950 n7         1 ZVE      -0.861400
      3 C4         -34.0750     6.9170   -44.5040 c3         1 ZVE       0.299700
      4 C5         -36.4390     7.2450   -47.2500 cc         1 ZVE       0.416800
      5 C6         -37.7860     6.9700   -47.8950 c6         1 ZVE      -0.100000
      6 C7         -37.6850     6.3140   -49.3030 c6         1 ZVE      -0.071400
      7 C8         -39.1020     6.0630   -49.8750 c6         1 ZVE      -0.076400
      8 C10        -38.6730     8.2410   -47.9240 c6         1 ZVE       0.166800
      9 C1         -35.3140     8.6790   -49.0800 c3         1 ZVE       0.054900
     10 C2         -34.3680     7.9890   -46.8470 cc         1 ZVE      -0.161000
     11 C3         -34.8220     7.2390   -45.7940 cd         1 ZVE       0.117300
     12 F1         -32.8420     7.4740   -44.4760 f          1 ZVE      -0.112000
     13 F2         -34.7340     7.3710   -43.4120 f          1 ZVE      -0.112000
     14 F3         -33.9060     5.5840   -44.3380 f          1 ZVE      -0.112000
     15 N2         -36.1020     6.7850   -46.0530 nd         1 ZVE      -0.628000
     16 C9         -39.9440     7.3630   -49.8580 c6         1 ZVE       0.157800
     17 H3         -38.3080     6.2490   -47.2510 hc         1 ZVE       0.102700
     18 H4         -37.1300     5.3670   -49.2430 hc         1 ZVE       0.041200
     19 H5         -37.1370     6.9570   -50.0010 hc         1 ZVE       0.041200
     20 H6         -39.6110     5.2880   -49.2850 hc         1 ZVE       0.052200
     21 H7         -39.0310     5.6790   -50.9010 hc         1 ZVE       0.052200
     22 H8         -38.1960     9.0300   -48.5210 h1         1 ZVE       0.032700
     23 H9         -38.7930     8.6290   -46.9020 h1         1 ZVE       0.032700
     24 H10        -34.5510     9.4670   -49.0400 h1         1 ZVE       0.058033
     25 H11        -35.0330     7.9550   -49.8550 h1         1 ZVE       0.058033
     26 H12        -36.2740     9.1370   -49.3370 h1         1 ZVE       0.058033
     27 H13        -33.4230     8.4970   -46.9980 h4         1 ZVE       0.170000
     28 H14        -39.4990     8.0970   -50.5470 h1         1 ZVE       0.029700
     29 H15        -40.9620     7.1470   -50.2140 h1         1 ZVE       0.029700
     30 H1         -40.5570     8.8140   -48.5300 hn         1 ZVE       0.417000
@<TRIPOS>BOND
     1     1     4 1   
     2     1     9 1   
     3     1    10 1   
     4     2     8 1   
     5     2    16 1   
     6     2    30 1   
     7     3    11 1   
     8     3    12 1   
     9     3    13 1   
    10     3    14 1   
    11     4     5 1   
    12     4    15 2   
    13     5     6 1   
    14     5     8 1   
    15     5    17 1   
    16     6     7 1   
    17     6    18 1   
    18     6    19 1   
    19     7    16 1   
    20     7    20 1   
    21     7    21 1   
    22     8    22 1   
    23     8    23 1   
    24     9    24 1   
    25     9    25 1   
    26     9    26 1   
    27    10    11 2   
    28    10    27 1   
    29    11    15 1   
    30    16    28 1   
    31    16    29 1   
@<TRIPOS>SUBSTRUCTURE
     1 ZVE         1 TEMP              0 ****  ****    0 ROOT
