@<TRIPOS>MOLECULE
ZVE
   30    31     1     0     0
SMALL
bcc


@<TRIPOS>ATOM
      1 N1         -35.3950     7.9990   -47.7800 na         1 ZVE      -0.174900
      2 N3         -39.9570     7.8770   -48.4470 n7         1 ZVE      -0.806200
      3 C4         -34.1710     6.9070   -44.5620 c3         1 ZVE       0.663600
      4 C5         -36.4250     7.2670   -47.2690 cc         1 ZVE       0.416800
      5 C6         -37.7490     7.0120   -47.9160 c6         1 ZVE      -0.100000
      6 C7         -37.6700     6.3540   -49.2990 c6         1 ZVE      -0.071400
      7 C8         -39.0760     6.0780   -49.8250 c6         1 ZVE      -0.076400
      8 C10        -38.6420     8.2570   -47.9710 c6         1 ZVE       0.166800
      9 C1         -35.2950     8.6550   -49.0700 c3         1 ZVE       0.025600
     10 C2         -34.3890     7.9880   -46.8630 cc         1 ZVE      -0.193600
     11 C3         -34.8580     7.2440   -45.8240 cd         1 ZVE       0.182600
     12 F1         -32.9700     7.4930   -44.4870 f          1 ZVE      -0.233300
     13 F2         -34.8710     7.2880   -43.4830 f          1 ZVE      -0.233300
     14 F3         -33.9740     5.5860   -44.4240 f          1 ZVE      -0.233300
     15 N2         -36.1180     6.8020   -46.0820 nd         1 ZVE      -0.628000
     16 C9         -39.9150     7.3480   -49.7990 c6         1 ZVE       0.157800
     17 H3         -38.2450     6.3050   -47.2440 hc         1 ZVE       0.102700
     18 H4         -37.0910     5.4290   -49.2430 hc         1 ZVE       0.041200
     19 H5         -37.1550     7.0070   -50.0080 hc         1 ZVE       0.041200
     20 H6         -39.5590     5.3150   -49.2090 hc         1 ZVE       0.052200
     21 H7         -39.0250     5.6870   -50.8430 hc         1 ZVE       0.052200
     22 H8         -38.1720     9.0250   -48.6050 h1         1 ZVE       0.032700
     23 H9         -38.7360     8.6840   -46.9700 h1         1 ZVE       0.032700
     24 H10        -34.5030     9.3970   -49.0220 h1         1 ZVE       0.058033
     25 H11        -35.0600     7.9400   -49.8540 h1         1 ZVE       0.058033
     26 H12        -36.2230     9.1630   -49.3160 h1         1 ZVE       0.058033
     27 H13        -33.4550     8.4980   -47.0340 h4         1 ZVE       0.188000
     28 H14        -39.4910     8.0680   -50.5190 h1         1 ZVE       0.029700
     29 H15        -40.9350     7.1340   -50.1240 h1         1 ZVE       0.029700
     30 H1         -40.5690     8.6820   -48.4130 hn         1 ZVE       0.361800
@<TRIPOS>BOND
     1     1     4 1   
     2     1     9 1   
     3     1    10 1   
     4     2     8 1   
     5     2    16 1   
     6     2    30 1   
     7     3    11 1   
     8     3    12 1   
     9     3    13 1   
    10     3    14 1   
    11     4     5 1   
    12     4    15 2   
    13     5     6 1   
    14     5     8 1   
    15     5    17 1   
    16     6     7 1   
    17     6    18 1   
    18     6    19 1   
    19     7    16 1   
    20     7    20 1   
    21     7    21 1   
    22     8    22 1   
    23     8    23 1   
    24     9    24 1   
    25     9    25 1   
    26     9    26 1   
    27    10    11 2   
    28    10    27 1   
    29    11    15 1   
    30    16    28 1   
    31    16    29 1   
@<TRIPOS>SUBSTRUCTURE
     1 ZVE         1 TEMP              0 ****  ****    0 ROOT
