@<TRIPOS>MOLECULE
ZVH
   24    25     1     0     0
SMALL
abcg2


@<TRIPOS>ATOM
      1 C4         -13.8310     6.4920   -28.6010 cc         1 ZVH      -0.040300
      2 C5         -12.7220     6.7980   -29.3440 cd         1 ZVH      -0.232000
      3 C6         -13.1630     8.5010   -27.6120 cd         1 ZVH      -0.246000
      4 C7         -14.0770     7.4890   -27.6020 cc         1 ZVH      -0.076000
      5 C8         -16.1800     5.5070   -28.8830 c5         1 ZVH      -0.072400
      6 C10        -15.9010     3.4590   -27.6710 c5         1 ZVH      -0.073400
      7 C2         -14.4890     4.0760   -27.8020 c5         1 ZVH      -0.173700
      8 C3         -14.6630     5.2640   -28.8300 c5         1 ZVH       0.014600
      9 S1         -11.9770     8.2670   -28.8390 ss         1 ZVH       0.079000
     10 C9         -16.7610     4.0990   -28.7710 c5         1 ZVH      -0.078400
     11 H1         -12.3040     6.2320   -30.1620 h4         1 ZVH       0.133000
     12 H2         -13.1190     9.3680   -26.9720 h4         1 ZVH       0.131000
     13 H3         -14.8940     7.4400   -26.8980 ha         1 ZVH       0.152000
     14 H4         -16.4770     6.0360   -29.7910 hc         1 ZVH       0.033700
     15 H5         -16.4950     6.1080   -28.0260 hc         1 ZVH       0.033700
     16 H6         -16.3020     3.7320   -26.6940 hc         1 ZVH       0.043200
     17 H7         -15.8790     2.3700   -27.7320 hc         1 ZVH       0.043200
     18 H8         -13.7940     3.3620   -28.2440 hc         1 ZVH       0.037700
     19 H9         -14.3700     4.8620   -29.8030 hc         1 ZVH       0.018700
     20 H10        -17.8260     4.0890   -28.5340 hc         1 ZVH       0.017200
     21 H11        -16.6280     3.5710   -29.7200 hc         1 ZVH       0.017200
     22 C1         -13.8650     4.5150   -26.4600 c          1 ZVH       0.710000
     23 O2         -14.6250     4.9830   -25.5730 o          1 ZVH      -0.736000
     24 O1         -12.6150     4.3870   -26.3560 o          1 ZVH      -0.736000
@<TRIPOS>BOND
     1     1     2 2   
     2     1     4 1   
     3     1     8 1   
     4     2     9 1   
     5     2    11 1   
     6     3     4 2   
     7     3     9 1   
     8     3    12 1   
     9     4    13 1   
    10     5     8 1   
    11     5    10 1   
    12     5    14 1   
    13     5    15 1   
    14     6     7 1   
    15     6    10 1   
    16     6    16 1   
    17     6    17 1   
    18     7     8 1   
    19     7    18 1   
    20     7    22 1   
    21     8    19 1   
    22    10    20 1   
    23    10    21 1   
    24    22    23 1   
    25    22    24 1   
@<TRIPOS>SUBSTRUCTURE
     1 ZVH         1 TEMP              0 ****  ****    0 ROOT
