@<TRIPOS>MOLECULE
ZVH
   24    25     1     0     0
SMALL
No Charge or Current Charge


@<TRIPOS>ATOM
      1 C4         -13.7660     6.4940   -28.6530 cc         1 ZVH      -0.040300
      2 C5         -12.6070     6.7010   -29.3530 cd         1 ZVH      -0.232000
      3 C6         -13.1580     8.5500   -27.7350 cd         1 ZVH      -0.246000
      4 C7         -14.0840     7.5390   -27.7430 cc         1 ZVH      -0.076000
      5 C8         -16.2130     5.5670   -28.6360 c5         1 ZVH      -0.072400
      6 C10        -15.8090     3.3380   -27.7810 c5         1 ZVH      -0.073400
      7 C2         -14.4340     4.1050   -27.8360 c5         1 ZVH      -0.173700
      8 C3         -14.6950     5.2950   -28.8240 c5         1 ZVH       0.014600
      9 S1         -11.8420     8.2270   -28.8790 ss         1 ZVH       0.079000
     10 C9         -16.7480     4.1190   -28.7490 c5         1 ZVH      -0.078400
     11 H1         -12.1550     6.0680   -30.1060 h4         1 ZVH       0.133000
     12 H2         -13.1570     9.4530   -27.1380 h4         1 ZVH       0.131000
     13 H3         -14.9670     7.5390   -27.1130 ha         1 ZVH       0.152000
     14 H4         -16.6200     6.2240   -29.4130 hc         1 ZVH       0.033700
     15 H5         -16.4680     6.0040   -27.6650 hc         1 ZVH       0.033700
     16 H6         -16.2280     3.3180   -26.7690 hc         1 ZVH       0.043200
     17 H7         -15.7030     2.2920   -28.0880 hc         1 ZVH       0.043200
     18 H8         -13.6380     3.4720   -28.2440 hc         1 ZVH       0.037700
     19 H9         -14.5470     4.9240   -29.8470 hc         1 ZVH       0.018700
     20 H10        -17.8020     4.0390   -28.4590 hc         1 ZVH       0.017200
     21 H11        -16.6670     3.7410   -29.7760 hc         1 ZVH       0.017200
     22 C1         -13.9940     4.5730   -26.4110 c          1 ZVH       0.710000
     23 O2         -14.7590     5.2100   -25.7000 o          1 ZVH      -0.736000
     24 O1         -12.8980     4.2150   -26.0020 o          1 ZVH      -0.736000
@<TRIPOS>BOND
     1     1     2 2   
     2     1     4 1   
     3     1     8 1   
     4     2     9 1   
     5     2    11 1   
     6     3     4 2   
     7     3     9 1   
     8     3    12 1   
     9     4    13 1   
    10     5     8 1   
    11     5    10 1   
    12     5    14 1   
    13     5    15 1   
    14     6     7 1   
    15     6    10 1   
    16     6    16 1   
    17     6    17 1   
    18     7     8 1   
    19     7    18 1   
    20     7    22 1   
    21     8    19 1   
    22    10    20 1   
    23    10    21 1   
    24    22    23 1   
    25    22    24 1   
@<TRIPOS>SUBSTRUCTURE
     1 ZVH         1 TEMP              0 ****  ****    0 ROOT
