@<TRIPOS>MOLECULE
ZVJ
   43    44     1     0     0
SMALL
abcg2


@<TRIPOS>ATOM
      1 C10        110.5130    97.6760   104.3090 ca         1 ZVJ      -0.185000
      2 C13        110.1090    99.1100   106.2100 ca         1 ZVJ      -0.237000
      3 C15        114.0120   100.6070   107.1620 c3         1 ZVJ      -0.056100
      4 C17        114.0640    98.1190   106.7990 ca         1 ZVJ      -0.068000
      5 C20        116.8130    98.1040   106.5170 ca         1 ZVJ      -0.172000
      6 C21        116.1380    99.2880   106.7810 ca         1 ZVJ      -0.068000
      7 C01        114.2820   101.5490   104.8290 c3         1 ZVJ      -0.085100
      8 C02        113.2920   101.1170   105.8990 c3         1 ZVJ       0.177500
      9 C04        111.1880   101.9190   106.9480 c3         1 ZVJ       0.132800
     10 C05        110.0140   101.6060   106.0020 c3         1 ZVJ       0.213600
     11 C06        110.1480   100.2280   105.3810 ca         1 ZVJ      -0.025300
     12 C07        110.3420   100.0730   104.0170 ca         1 ZVJ      -0.237000
     13 C08        110.5260    98.7960   103.4870 ca         1 ZVJ       0.171100
     14 C11        110.2990    97.8420   105.6740 ca         1 ZVJ       0.171100
     15 C16        114.7560    99.3240   106.9250 ca         1 ZVJ      -0.116300
     16 C18        114.7180    96.9280   106.5330 ca         1 ZVJ      -0.172000
     17 C19        116.1040    96.9140   106.3860 ca         1 ZVJ       0.138100
     18 O09        110.7250    98.5910   102.1700 oh         1 ZVJ      -0.532100
     19 O12        110.2970    96.7280   106.4340 oh         1 ZVJ      -0.532100
     20 O14        109.9290   102.6250   105.0450 oh         1 ZVJ      -0.656000
     21 O22        116.7000    95.7310   106.1250 oh         1 ZVJ      -0.533100
     22 H1         110.6610    96.6870   103.8930 ha         1 ZVJ       0.144000
     23 H2         109.9450    99.2290   107.2770 ha         1 ZVJ       0.119500
     24 H4         113.2750   100.4510   107.9550 hc         1 ZVJ       0.043700
     25 H5         112.9860    98.1090   106.9130 ha         1 ZVJ       0.111500
     26 H6         117.8930    98.1110   106.4100 ha         1 ZVJ       0.122000
     27 H7         116.7100   100.2050   106.8750 ha         1 ZVJ       0.111500
     28 H8         114.9780   100.7470   104.5850 hc         1 ZVJ       0.039367
     29 H9         113.7600   101.8360   103.9160 hc         1 ZVJ       0.039367
     30 H10        114.8700   102.4060   105.1670 hc         1 ZVJ       0.039367
     31 H11        112.7000   100.2910   105.4980 h1         1 ZVJ       0.074700
     32 H12        110.9240   102.8070   107.5250 h1         1 ZVJ       0.043700
     33 H13        111.3250   101.1080   107.6710 h1         1 ZVJ       0.043700
     34 H14        109.0920   101.6210   106.5950 h1         1 ZVJ       0.072700
     35 H15        110.3600   100.9360   103.3630 ha         1 ZVJ       0.119500
     36 H16        114.1580    96.0060   106.4400 ha         1 ZVJ       0.122000
     37 H19        110.7190    99.4300   101.6950 ho         1 ZVJ       0.465500
     38 H20        110.1490    96.9530   107.3600 ho         1 ZVJ       0.465500
     39 H21        110.8560   102.8640   104.8720 ho         1 ZVJ       0.468000
     40 H22        117.6530    95.8480   106.0370 ho         1 ZVJ       0.463000
     41 N03        112.3770   102.2210   106.1700 n7         1 ZVJ      -0.902400
     42 H3         114.6960   101.3840   107.5180 hc         1 ZVJ       0.043700
     43 H17        112.8870   102.9900   106.5850 hn         1 ZVJ       0.421000
@<TRIPOS>BOND
     1     1    13 ar  
     2     1    14 ar  
     3     1    22 1   
     4     2    11 ar  
     5     2    14 ar  
     6     2    23 1   
     7     3     8 1   
     8     3    15 1   
     9     3    24 1   
    10     3    42 1   
    11     4    15 ar  
    12     4    16 ar  
    13     4    25 1   
    14     5     6 ar  
    15     5    17 ar  
    16     5    26 1   
    17     6    15 ar  
    18     6    27 1   
    19     7     8 1   
    20     7    28 1   
    21     7    29 1   
    22     7    30 1   
    23     8    31 1   
    24     8    41 1   
    25     9    10 1   
    26     9    32 1   
    27     9    33 1   
    28     9    41 1   
    29    10    11 1   
    30    10    20 1   
    31    10    34 1   
    32    11    12 ar  
    33    12    13 ar  
    34    12    35 1   
    35    13    18 1   
    36    14    19 1   
    37    16    17 ar  
    38    16    36 1   
    39    17    21 1   
    40    18    37 1   
    41    19    38 1   
    42    20    39 1   
    43    21    40 1   
    44    41    43 1   
@<TRIPOS>SUBSTRUCTURE
     1 ZVJ         1 TEMP              0 ****  ****    0 ROOT
