@<TRIPOS>MOLECULE
ZVJ
   43    44     1     0     0
SMALL
No Charge or Current Charge


@<TRIPOS>ATOM
      1 C10        110.2690    97.3000   104.9440 ca         1 ZVJ      -0.185000
      2 C13        109.8160    99.1820   106.4110 ca         1 ZVJ      -0.237000
      3 C15        113.8410   100.4740   107.1150 c3         1 ZVJ      -0.056100
      4 C17        114.0270    98.2040   105.9930 ca         1 ZVJ      -0.068000
      5 C20        116.8090    98.1490   106.3790 ca         1 ZVJ      -0.172000
      6 C21        116.0590    99.2500   106.8300 ca         1 ZVJ      -0.068000
      7 C01        114.5160   102.0450   105.1960 c3         1 ZVJ      -0.085100
      8 C02        113.3510   101.3710   105.9470 c3         1 ZVJ       0.177500
      9 C04        111.0710   102.0270   106.8940 c3         1 ZVJ       0.132800
     10 C05        110.1620   101.6080   105.6980 c3         1 ZVJ       0.213600
     11 C06        110.2100   100.0920   105.4050 ca         1 ZVJ      -0.025300
     12 C07        110.6190    99.5710   104.1530 ca         1 ZVJ      -0.237000
     13 C08        110.6500    98.1860   103.9310 ca         1 ZVJ       0.171100
     14 C11        109.8500    97.7990   106.1820 ca         1 ZVJ       0.171100
     15 C16        114.6640    99.2830   106.6370 ca         1 ZVJ      -0.116300
     16 C18        114.7790    97.1050   105.5430 ca         1 ZVJ      -0.172000
     17 C19        116.1680    97.0780   105.7350 ca         1 ZVJ       0.138100
     18 O09        111.0510    97.6980   102.7260 oh         1 ZVJ      -0.532100
     19 O12        109.4730    96.9350   107.1640 oh         1 ZVJ      -0.532100
     20 O14        110.6320   102.3970   104.6040 oh         1 ZVJ      -0.656000
     21 O22        116.8890    96.0080   105.2960 oh         1 ZVJ      -0.533100
     22 H1         110.2940    96.2290   104.7690 ha         1 ZVJ       0.144000
     23 H2         109.4820    99.5600   107.3750 ha         1 ZVJ       0.119500
     24 H4         112.9800   100.0930   107.6750 hc         1 ZVJ       0.043700
     25 H5         112.9500    98.2180   105.8420 ha         1 ZVJ       0.111500
     26 H6         117.8860    98.1370   106.5320 ha         1 ZVJ       0.122000
     27 H7         116.5630   100.0780   107.3240 ha         1 ZVJ       0.111500
     28 H8         115.1810   101.2930   104.7540 hc         1 ZVJ       0.039367
     29 H9         114.1380   102.6750   104.3830 hc         1 ZVJ       0.039367
     30 H10        115.1090   102.6730   105.8730 hc         1 ZVJ       0.039367
     31 H11        112.8340   100.7290   105.2210 h1         1 ZVJ       0.074700
     32 H12        110.5890   102.8870   107.3790 h1         1 ZVJ       0.043700
     33 H13        111.1090   101.2320   107.6480 h1         1 ZVJ       0.043700
     34 H14        109.1230   101.8680   105.9430 h1         1 ZVJ       0.072700
     35 H15        110.9180   100.2410   103.3530 ha         1 ZVJ       0.119500
     36 H16        114.2830    96.2760   105.0460 ha         1 ZVJ       0.122000
     37 H19        111.2640    98.4590   102.1450 ho         1 ZVJ       0.465500
     38 H20        109.2070    97.4600   107.9480 ho         1 ZVJ       0.465500
     39 H21        111.5220   102.6520   104.9740 ho         1 ZVJ       0.468000
     40 H22        117.8330    96.1600   105.5150 ho         1 ZVJ       0.463000
     41 N03        112.4400   102.4390   106.4330 n7         1 ZVJ      -0.902400
     42 H3         114.4170   101.0830   107.8230 hc         1 ZVJ       0.043700
     43 H17        112.9150   102.9130   107.2140 hn         1 ZVJ       0.421000
@<TRIPOS>BOND
     1     1    13 ar  
     2     1    14 ar  
     3     1    22 1   
     4     2    11 ar  
     5     2    14 ar  
     6     2    23 1   
     7     3     8 1   
     8     3    15 1   
     9     3    24 1   
    10     3    42 1   
    11     4    15 ar  
    12     4    16 ar  
    13     4    25 1   
    14     5     6 ar  
    15     5    17 ar  
    16     5    26 1   
    17     6    15 ar  
    18     6    27 1   
    19     7     8 1   
    20     7    28 1   
    21     7    29 1   
    22     7    30 1   
    23     8    31 1   
    24     8    41 1   
    25     9    10 1   
    26     9    32 1   
    27     9    33 1   
    28     9    41 1   
    29    10    11 1   
    30    10    20 1   
    31    10    34 1   
    32    11    12 ar  
    33    12    13 ar  
    34    12    35 1   
    35    13    18 1   
    36    14    19 1   
    37    16    17 ar  
    38    16    36 1   
    39    17    21 1   
    40    18    37 1   
    41    19    38 1   
    42    20    39 1   
    43    21    40 1   
    44    41    43 1   
@<TRIPOS>SUBSTRUCTURE
     1 ZVJ         1 TEMP              0 ****  ****    0 ROOT
