@<TRIPOS>MOLECULE
ZVK
   33    33     1     0     0
SMALL
abcg2


@<TRIPOS>ATOM
      1 C10        -41.7730     9.7510   -45.7660 c3         1 ZVK       0.196100
      2 C15        -42.0720     5.5270   -51.2110 ca         1 ZVK      -0.100500
      3 C01        -40.6150     1.9810   -51.6690 c3         1 ZVK      -0.088100
      4 C03        -41.2360     4.4120   -51.0780 ca         1 ZVK      -0.086300
      5 C04        -40.2550     4.4610   -50.0900 ca         1 ZVK      -0.100500
      6 C05        -40.1100     5.5740   -49.2650 ca         1 ZVK      -0.113000
      7 C06        -40.9590     6.6720   -49.3940 ca         1 ZVK       0.166400
      8 N07        -40.7730     7.8110   -48.5950 ne         1 ZVK      -0.650100
      9 C08        -41.6240     8.1840   -47.7110 c2         1 ZVK       0.709100
     10 N09        -41.5520     9.4360   -47.1740 nu         1 ZVK      -0.890400
     11 C11        -45.6500     7.3730   -46.8720 c3         1 ZVK      -0.085100
     12 C12        -44.4140     8.2040   -47.1890 c3         1 ZVK       0.082600
     13 S13        -42.9430     7.1080   -47.1340 ss         1 ZVK      -0.419200
     14 C14        -41.9410     6.6370   -50.3920 ca         1 ZVK      -0.113000
     15 H1         -40.8310     9.7340   -45.2100 h1         1 ZVK       0.045033
     16 H2         -42.2190    10.7410   -45.6750 h1         1 ZVK       0.045033
     17 H3         -42.4420     9.0210   -45.3220 h1         1 ZVK       0.045033
     18 H4         -42.8440     5.5210   -51.9730 ha         1 ZVK       0.109500
     19 H5         -40.8450     1.1830   -52.3770 hc         1 ZVK       0.034033
     20 H6         -39.5400     2.1660   -51.7140 hc         1 ZVK       0.034033
     21 H7         -40.8490     1.6180   -50.6650 hc         1 ZVK       0.034033
     22 H8         -41.1670     3.5500   -53.0270 hc         1 ZVK       0.044700
     23 H9         -42.4820     2.9800   -52.0380 hc         1 ZVK       0.044700
     24 H10        -39.5850     3.6230   -49.9500 ha         1 ZVK       0.109500
     25 H11        -39.3390     5.5910   -48.5040 ha         1 ZVK       0.115500
     26 H12        -40.8260     9.9880   -47.6140 hn         1 ZVK       0.476000
     27 H13        -46.5350     8.0110   -46.9140 hc         1 ZVK       0.046700
     28 H14        -45.7790     6.5620   -47.5910 hc         1 ZVK       0.046700
     29 H15        -45.5910     6.9410   -45.8720 hc         1 ZVK       0.046700
     30 H16        -44.4680     8.6280   -48.1900 h1         1 ZVK       0.062700
     31 H17        -44.2970     9.0130   -46.4710 h1         1 ZVK       0.062700
     32 H18        -42.6030     7.4860   -50.5110 ha         1 ZVK       0.115500
     33 C02        -41.4180     3.2320   -52.0090 c3         1 ZVK      -0.028100
@<TRIPOS>BOND
     1     1    10 1   
     2     1    15 1   
     3     1    16 1   
     4     1    17 1   
     5     2     4 ar  
     6     2    14 ar  
     7     2    18 1   
     8     3    19 1   
     9     3    20 1   
    10     3    21 1   
    11     3    33 1   
    12     4     5 ar  
    13     4    33 1   
    14     5     6 ar  
    15     5    24 1   
    16     6     7 ar  
    17     6    25 1   
    18     7     8 1   
    19     7    14 ar  
    20     8     9 2   
    21     9    10 1   
    22     9    13 1   
    23    10    26 1   
    24    11    12 1   
    25    11    27 1   
    26    11    28 1   
    27    11    29 1   
    28    12    13 1   
    29    12    30 1   
    30    12    31 1   
    31    14    32 1   
    32    22    33 1   
    33    23    33 1   
@<TRIPOS>SUBSTRUCTURE
     1 ZVK         1 TEMP              0 ****  ****    0 ROOT
