@<TRIPOS>MOLECULE
ZVK
   33    33     1     0     0
SMALL
No Charge or Current Charge


@<TRIPOS>ATOM
      1 C10        -41.5830     9.6220   -45.8120 c3         1 ZVK       0.196100
      2 C15        -42.0210     5.4320   -51.2860 ca         1 ZVK      -0.100500
      3 C01        -41.5350     2.0950   -51.2660 c3         1 ZVK      -0.088100
      4 C03        -40.9190     4.5600   -51.2010 ca         1 ZVK      -0.086300
      5 C04        -39.8460     4.8840   -50.3490 ca         1 ZVK      -0.100500
      6 C05        -39.8750     6.0670   -49.5900 ca         1 ZVK      -0.113000
      7 C06        -40.9790     6.9340   -49.6690 ca         1 ZVK       0.166400
      8 N07        -40.9930     8.1200   -48.9150 ne         1 ZVK      -0.650100
      9 C08        -41.7710     8.2970   -47.9040 c2         1 ZVK       0.709100
     10 N09        -41.7130     9.5030   -47.2730 nu         1 ZVK      -0.890400
     11 C11        -45.5630     6.9910   -46.6330 c3         1 ZVK      -0.085100
     12 C12        -44.4520     7.9410   -47.1060 c3         1 ZVK       0.082600
     13 S13        -42.8610     7.0200   -47.2970 ss         1 ZVK      -0.419200
     14 C14        -42.0480     6.6160   -50.5270 ca         1 ZVK      -0.113000
     15 H1         -40.6630     9.1310   -45.4680 h1         1 ZVK       0.045033
     16 H2         -41.5410    10.6790   -45.5170 h1         1 ZVK       0.045033
     17 H3         -42.4340     9.1570   -45.2970 h1         1 ZVK       0.045033
     18 H4         -42.8570     5.1940   -51.9400 ha         1 ZVK       0.109500
     19 H5         -41.5010     1.1860   -51.8780 hc         1 ZVK       0.034033
     20 H6         -41.0040     1.8990   -50.3280 hc         1 ZVK       0.034033
     21 H7         -42.5840     2.3130   -51.0320 hc         1 ZVK       0.034033
     22 H8         -39.8580     3.0110   -52.2760 hc         1 ZVK       0.044700
     23 H9         -41.4170     3.4200   -52.9700 hc         1 ZVK       0.044700
     24 H10        -38.9880     4.2180   -50.2730 ha         1 ZVK       0.109500
     25 H11        -39.0420     6.3110   -48.9370 ha         1 ZVK       0.115500
     26 H12        -41.1520    10.1600   -47.8080 hn         1 ZVK       0.476000
     27 H13        -46.5090     7.5340   -46.5250 hc         1 ZVK       0.046700
     28 H14        -45.7120     6.1790   -47.3550 hc         1 ZVK       0.046700
     29 H15        -45.3070     6.5500   -45.6620 hc         1 ZVK       0.046700
     30 H16        -44.7280     8.3810   -48.0730 h1         1 ZVK       0.062700
     31 H17        -44.3290     8.7540   -46.3800 h1         1 ZVK       0.062700
     32 H18        -42.9010     7.2850   -50.6020 ha         1 ZVK       0.115500
     33 C02        -40.8910     3.2750   -52.0180 c3         1 ZVK      -0.028100
@<TRIPOS>BOND
     1     1    10 1   
     2     1    15 1   
     3     1    16 1   
     4     1    17 1   
     5     2     4 ar  
     6     2    14 ar  
     7     2    18 1   
     8     3    19 1   
     9     3    20 1   
    10     3    21 1   
    11     3    33 1   
    12     4     5 ar  
    13     4    33 1   
    14     5     6 ar  
    15     5    24 1   
    16     6     7 ar  
    17     6    25 1   
    18     7     8 1   
    19     7    14 ar  
    20     8     9 2   
    21     9    10 1   
    22     9    13 1   
    23    10    26 1   
    24    11    12 1   
    25    11    27 1   
    26    11    28 1   
    27    11    29 1   
    28    12    13 1   
    29    12    30 1   
    30    12    31 1   
    31    14    32 1   
    32    22    33 1   
    33    23    33 1   
@<TRIPOS>SUBSTRUCTURE
     1 ZVK         1 TEMP              0 ****  ****    0 ROOT
