@<TRIPOS>MOLECULE
ZVM
   48    52     1     0     0
SMALL
abcg2


@<TRIPOS>ATOM
      1 C10        149.0080   215.6020   172.0140 ca         1 ZVM      -0.098500
      2 C13        150.4720   217.2140   170.2800 ca         1 ZVM      -0.106000
      3 C15        149.9790   216.8690   174.7790 c          1 ZVM       0.582000
      4 C17        148.2440   216.3690   178.3810 ca         1 ZVM       0.361000
      5 C20        149.7120   215.0750   180.4200 ca         1 ZVM      -0.158000
      6 C21        150.3660   215.7040   179.3810 ca         1 ZVM      -0.013000
      7 C22        149.6570   216.3450   178.3570 ca         1 ZVM      -0.227600
      8 C01        150.3940   217.0130   177.2890 c          1 ZVM       0.616700
      9 C02        149.5820   217.5180   176.1200 c6         1 ZVM      -0.353000
     10 C03        148.0790   217.4670   176.2270 c2         1 ZVM       0.662200
     11 C04        148.0960   218.2640   174.0600 c6         1 ZVM       0.337900
     12 C05        147.1550   218.4320   172.8790 cy         1 ZVM      -0.079700
     13 C06        146.1710   217.2660   172.5870 cy         1 ZVM      -0.074900
     14 C07        144.9720   218.2110   172.8610 cy         1 ZVM      -0.083400
     15 C08        145.9530   219.3750   173.1560 cy         1 ZVM      -0.074900
     16 C09        149.4700   216.8430   172.4350 ca         1 ZVM      -0.039000
     17 C11        149.2790   215.1670   170.7220 ca         1 ZVM      -0.106000
     18 C12        150.0080   215.9740   169.8530 ca         1 ZVM      -0.106000
     19 C14        150.2090   217.6480   171.5750 ca         1 ZVM      -0.098500
     20 C18        147.5900   215.7280   179.4460 ca         1 ZVM      -0.181000
     21 C19        148.3160   215.0940   180.4400 ca         1 ZVM      -0.044000
     22 N01        147.3650   217.8400   175.2370 n2         1 ZVM      -0.681900
     23 N02        149.1940   217.2960   173.7660 n          1 ZVM      -0.272400
     24 N03        147.5030   217.0130   177.3940 nh         1 ZVM      -0.755400
     25 O02        150.8980   216.0720   174.6660 o          1 ZVM      -0.510000
     26 H1         148.4360   214.9880   172.6970 ha         1 ZVM       0.121500
     27 H2         151.0430   217.8430   169.6090 ha         1 ZVM       0.116500
     28 H3         150.2680   214.5750   181.2010 ha         1 ZVM       0.124000
     29 H4         151.4460   215.7140   179.3280 ha         1 ZVM       0.138000
     30 H5         149.8410   218.5810   176.0070 hc         1 ZVM       0.110700
     31 H6         148.5610   219.2410   174.2580 h2         1 ZVM       0.051700
     32 H7         147.7330   218.7370   172.0100 hc         1 ZVM       0.067700
     33 H8         146.2320   216.8830   171.5690 hc         1 ZVM       0.052950
     34 H9         146.2570   216.4300   173.2790 hc         1 ZVM       0.052950
     35 H10        144.3210   218.3750   172.0030 hc         1 ZVM       0.047200
     36 H11        144.3570   217.9180   173.7120 hc         1 ZVM       0.047200
     37 H12        145.9120   219.7520   174.1780 hc         1 ZVM       0.052950
     38 H13        145.8870   220.2180   172.4690 hc         1 ZVM       0.052950
     39 H14        148.9170   214.2010   170.3930 ha         1 ZVM       0.116500
     40 H15        150.2160   215.6350   168.8450 ha         1 ZVM       0.115000
     41 H16        150.5680   218.6080   171.9210 ha         1 ZVM       0.121500
     42 H17        145.6020   216.0860   177.3900 h1         1 ZVM       0.055700
     43 H18        145.7770   217.4720   178.4910 h1         1 ZVM       0.055700
     44 H19        145.6720   217.7320   176.7390 h1         1 ZVM       0.055700
     45 H20        146.5140   215.7120   179.4990 ha         1 ZVM       0.121000
     46 H21        147.7810   214.6030   181.2430 ha         1 ZVM       0.116000
     47 O01        151.6000   217.1990   177.3150 o          1 ZVM      -0.499100
     48 C16        146.0470   217.0750   177.5140 c3         1 ZVM       0.208100
@<TRIPOS>BOND
     1     1    16 ar  
     2     1    17 ar  
     3     1    26 1   
     4     2    18 ar  
     5     2    19 ar  
     6     2    27 1   
     7     3     9 1   
     8     3    23 1   
     9     3    25 2   
    10     4     7 ar  
    11     4    20 ar  
    12     4    24 1   
    13     5     6 ar  
    14     5    21 ar  
    15     5    28 1   
    16     6     7 ar  
    17     6    29 1   
    18     7     8 1   
    19     8     9 1   
    20     8    47 2   
    21     9    10 1   
    22     9    30 1   
    23    10    22 2   
    24    10    24 1   
    25    11    12 1   
    26    11    22 1   
    27    11    23 1   
    28    11    31 1   
    29    12    13 1   
    30    12    15 1   
    31    12    32 1   
    32    13    14 1   
    33    13    33 1   
    34    13    34 1   
    35    14    15 1   
    36    14    35 1   
    37    14    36 1   
    38    15    37 1   
    39    15    38 1   
    40    16    19 ar  
    41    16    23 1   
    42    17    18 ar  
    43    17    39 1   
    44    18    40 1   
    45    19    41 1   
    46    20    21 ar  
    47    20    45 1   
    48    21    46 1   
    49    24    48 1   
    50    42    48 1   
    51    43    48 1   
    52    44    48 1   
@<TRIPOS>SUBSTRUCTURE
     1 ZVM         1 TEMP              0 ****  ****    0 ROOT
