@<TRIPOS>MOLECULE
ZVM
   48    52     1     0     0
SMALL
No Charge or Current Charge


@<TRIPOS>ATOM
      1 C10        149.6510   215.5750   171.9280 ca         1 ZVM      -0.098500
      2 C13        150.3970   217.6980   170.2570 ca         1 ZVM      -0.106000
      3 C15        149.5630   216.5830   174.8320 c          1 ZVM       0.582000
      4 C17        148.2850   216.6380   178.3480 ca         1 ZVM       0.361000
      5 C20        149.3050   214.5110   179.9040 ca         1 ZVM      -0.158000
      6 C21        150.1280   215.1560   178.9690 ca         1 ZVM      -0.013000
      7 C22        149.6070   216.2050   178.1850 ca         1 ZVM      -0.227600
      8 C01        150.4430   216.8940   177.1740 c          1 ZVM       0.616700
      9 C02        149.7200   217.4910   176.0080 c6         1 ZVM      -0.353000
     10 C03        148.3480   217.9240   176.3140 c2         1 ZVM       0.662200
     11 C04        148.0310   218.3310   173.9700 c6         1 ZVM       0.337900
     12 C05        146.8390   218.0170   172.9880 cy         1 ZVM      -0.079700
     13 C06        146.0300   216.7010   173.2810 cy         1 ZVM      -0.074900
     14 C07        144.7980   217.4800   172.7070 cy         1 ZVM      -0.083400
     15 C08        145.4870   218.7660   173.2800 cy         1 ZVM      -0.074900
     16 C09        149.3920   216.8990   172.3470 ca         1 ZVM      -0.039000
     17 C11        150.2080   215.3140   170.6630 ca         1 ZVM      -0.106000
     18 C12        150.5710   216.3760   169.8210 ca         1 ZVM      -0.106000
     19 C14        149.8380   217.9550   171.5200 ca         1 ZVM      -0.098500
     20 C18        147.4630   215.9690   179.2800 ca         1 ZVM      -0.181000
     21 C19        147.9690   214.9110   180.0540 ca         1 ZVM      -0.044000
     22 N01        147.5710   218.3340   175.3830 n2         1 ZVM      -0.681900
     23 N02        148.9840   217.1980   173.7050 n          1 ZVM      -0.272400
     24 N03        147.8210   217.7280   177.5740 nh         1 ZVM      -0.755400
     25 O02        149.8650   215.4000   174.8890 o          1 ZVM      -0.510000
     26 H1         149.3820   214.7330   172.5590 ha         1 ZVM       0.121500
     27 H2         150.7100   218.5240   169.6220 ha         1 ZVM       0.116500
     28 H3         149.7000   213.6950   180.5060 ha         1 ZVM       0.124000
     29 H4         151.1610   214.8350   178.8460 ha         1 ZVM       0.138000
     30 H5         150.2540   218.3790   175.6530 hc         1 ZVM       0.110700
     31 H6         148.5130   219.2890   173.7260 h2         1 ZVM       0.051700
     32 H7         147.1530   218.1290   171.9440 hc         1 ZVM       0.067700
     33 H8         146.3410   215.8140   172.7180 hc         1 ZVM       0.052950
     34 H9         145.9370   216.4260   174.3390 hc         1 ZVM       0.052950
     35 H10        144.7130   217.4570   171.6140 hc         1 ZVM       0.047200
     36 H11        143.8250   217.2250   173.1400 hc         1 ZVM       0.047200
     37 H12        145.2560   218.9610   174.3340 hc         1 ZVM       0.052950
     38 H13        145.3210   219.6890   172.7150 hc         1 ZVM       0.052950
     39 H14        150.3650   214.2870   170.3410 ha         1 ZVM       0.116500
     40 H15        151.0070   216.1740   168.8450 ha         1 ZVM       0.115000
     41 H16        149.7510   218.9870   171.8510 ha         1 ZVM       0.121500
     42 H17        145.7230   218.1370   177.4880 h1         1 ZVM       0.055700
     43 H18        146.4610   218.4210   179.0880 h1         1 ZVM       0.055700
     44 H19        146.7530   219.5620   177.7780 h1         1 ZVM       0.055700
     45 H20        146.4230   216.2510   179.4080 ha         1 ZVM       0.121000
     46 H21        147.3260   214.4040   180.7710 ha         1 ZVM       0.116000
     47 O01        151.6470   217.0490   177.3210 o          1 ZVM      -0.499100
     48 C16        146.6230   218.4950   178.0050 c3         1 ZVM       0.208100
@<TRIPOS>BOND
     1     1    16 ar  
     2     1    17 ar  
     3     1    26 1   
     4     2    18 ar  
     5     2    19 ar  
     6     2    27 1   
     7     3     9 1   
     8     3    23 1   
     9     3    25 2   
    10     4     7 ar  
    11     4    20 ar  
    12     4    24 1   
    13     5     6 ar  
    14     5    21 ar  
    15     5    28 1   
    16     6     7 ar  
    17     6    29 1   
    18     7     8 1   
    19     8     9 1   
    20     8    47 2   
    21     9    10 1   
    22     9    30 1   
    23    10    22 2   
    24    10    24 1   
    25    11    12 1   
    26    11    22 1   
    27    11    23 1   
    28    11    31 1   
    29    12    13 1   
    30    12    15 1   
    31    12    32 1   
    32    13    14 1   
    33    13    33 1   
    34    13    34 1   
    35    14    15 1   
    36    14    35 1   
    37    14    36 1   
    38    15    37 1   
    39    15    38 1   
    40    16    19 ar  
    41    16    23 1   
    42    17    18 ar  
    43    17    39 1   
    44    18    40 1   
    45    19    41 1   
    46    20    21 ar  
    47    20    45 1   
    48    21    46 1   
    49    24    48 1   
    50    42    48 1   
    51    43    48 1   
    52    44    48 1   
@<TRIPOS>SUBSTRUCTURE
     1 ZVM         1 TEMP              0 ****  ****    0 ROOT
