@<TRIPOS>MOLECULE
ZVN
   28    30     1     0     0
SMALL
abcg2


@<TRIPOS>ATOM
      1 C10        -11.0110    23.6250   -19.6740 ca         1 ZVN      -0.083000
      2 C13         -9.7590    23.6760   -22.2020 ca         1 ZVN      -0.061000
      3 C01        -15.3340    18.8370   -20.9720 c6         1 ZVN       0.144300
      4 C02        -13.9940    19.4130   -20.5460 c6         1 ZVN       0.221800
      5 N03        -13.2670    19.9220   -21.7130 nh         1 ZVN      -0.733600
      6 C04        -13.1610    18.9960   -22.8390 c6         1 ZVN       0.221800
      7 C05        -14.5300    18.4350   -23.1920 c6         1 ZVN       0.144300
      8 N06        -15.1300    17.8260   -22.0080 n7         1 ZVN      -0.863400
      9 C07        -12.4010    20.9440   -21.5580 cc         1 ZVN       0.664100
     10 N08        -12.2840    21.6650   -20.4760 nd         1 ZVN      -0.643100
     11 C09        -11.3560    22.6750   -20.6380 ca         1 ZVN       0.147400
     12 C11        -10.0530    24.5850   -19.9760 ca         1 ZVN      -0.099000
     13 C12         -9.4300    24.6130   -21.2280 ca         1 ZVN      -0.124000
     14 C14        -10.7170    22.7190   -21.8970 ca         1 ZVN      -0.188000
     15 S15        -11.3280    21.4260   -22.9010 ss         1 ZVN      -0.061200
     16 H1         -11.4940    23.6040   -18.7040 ha         1 ZVN       0.128000
     17 H2          -9.2800    23.6940   -23.1720 ha         1 ZVN       0.119000
     18 H4         -15.8120    18.3770   -20.1060 h1         1 ZVN       0.043950
     19 H5         -13.3930    18.6380   -20.0550 h1         1 ZVN       0.061200
     20 H6         -14.1380    20.2320   -19.8480 h1         1 ZVN       0.061200
     21 H7         -12.4760    18.1790   -22.5820 h1         1 ZVN       0.061200
     22 H8         -12.7590    19.5220   -23.7030 h1         1 ZVN       0.061200
     23 H9         -15.1500    19.2500   -23.5960 h1         1 ZVN       0.043950
     24 H10        -14.4120    17.6800   -23.9700 h1         1 ZVN       0.043950
     25 H11        -16.0160    17.4010   -22.2540 hn         1 ZVN       0.416000
     26 H13         -9.7840    25.3230   -19.2300 ha         1 ZVN       0.114000
     27 H14         -8.6850    25.3690   -21.4440 ha         1 ZVN       0.114000
     28 H3         -15.9790    19.6580   -21.3220 h1         1 ZVN       0.043950
@<TRIPOS>BOND
     1     1    11 ar  
     2     1    12 ar  
     3     1    16 1   
     4     2    13 ar  
     5     2    14 ar  
     6     2    17 1   
     7     3     4 1   
     8     3     8 1   
     9     3    18 1   
    10     3    28 1   
    11     4     5 1   
    12     4    19 1   
    13     4    20 1   
    14     5     6 1   
    15     5     9 1   
    16     6     7 1   
    17     6    21 1   
    18     6    22 1   
    19     7     8 1   
    20     7    23 1   
    21     7    24 1   
    22     8    25 1   
    23     9    10 2   
    24     9    15 1   
    25    10    11 1   
    26    11    14 ar  
    27    12    13 ar  
    28    12    26 1   
    29    13    27 1   
    30    14    15 1   
@<TRIPOS>SUBSTRUCTURE
     1 ZVN         1 TEMP              0 ****  ****    0 ROOT
