@<TRIPOS>MOLECULE
ZVN
   28    30     1     0     0
SMALL
No Charge or Current Charge


@<TRIPOS>ATOM
      1 C10        -11.0200    23.6820   -19.6790 ca         1 ZVN      -0.083000
      2 C13         -9.6900    23.6850   -22.1700 ca         1 ZVN      -0.061000
      3 C01        -15.3470    18.7580   -20.9250 c6         1 ZVN       0.144300
      4 C02        -13.9820    19.4160   -20.5410 c6         1 ZVN       0.221800
      5 N03        -13.2430    19.9620   -21.7310 nh         1 ZVN      -0.733600
      6 C04        -13.1800    19.0060   -22.8880 c6         1 ZVN       0.221800
      7 C05        -14.5640    18.3550   -23.2130 c6         1 ZVN       0.144300
      8 N06        -15.2240    17.7540   -22.0190 n7         1 ZVN      -0.863400
      9 C07        -12.3600    21.0230   -21.6120 cc         1 ZVN       0.664100
     10 N08        -12.3130    21.7490   -20.4890 nd         1 ZVN      -0.643100
     11 C09        -11.3460    22.7310   -20.6600 ca         1 ZVN       0.147400
     12 C11        -10.0220    24.6410   -19.9470 ca         1 ZVN      -0.099000
     13 C12         -9.3570    24.6420   -21.1920 ca         1 ZVN      -0.124000
     14 C14        -10.6870    22.7440   -21.8720 ca         1 ZVN      -0.188000
     15 S15        -11.2510    21.4750   -22.9400 ss         1 ZVN      -0.061200
     16 H1         -11.5350    23.6770   -18.7210 ha         1 ZVN       0.128000
     17 H2          -9.1840    23.6770   -23.1330 ha         1 ZVN       0.119000
     18 H4         -15.7830    18.2810   -20.0340 h1         1 ZVN       0.043950
     19 H5         -13.3580    18.6630   -20.0380 h1         1 ZVN       0.061200
     20 H6         -14.1900    20.2020   -19.8010 h1         1 ZVN       0.061200
     21 H7         -12.4590    18.2060   -22.6630 h1         1 ZVN       0.061200
     22 H8         -12.8300    19.5030   -23.8030 h1         1 ZVN       0.061200
     23 H9         -15.2230    19.1290   -23.6350 h1         1 ZVN       0.043950
     24 H10        -14.4310    17.5850   -23.9870 h1         1 ZVN       0.043950
     25 H11        -16.1620    17.4240   -22.2820 hn         1 ZVN       0.416000
     26 H13         -9.7640    25.3810   -19.1930 ha         1 ZVN       0.114000
     27 H14         -8.5880    25.3830   -21.3970 ha         1 ZVN       0.114000
     28 H3         -16.0410    19.5510   -21.2410 h1         1 ZVN       0.043950
@<TRIPOS>BOND
     1     1    11 ar  
     2     1    12 ar  
     3     1    16 1   
     4     2    13 ar  
     5     2    14 ar  
     6     2    17 1   
     7     3     4 1   
     8     3     8 1   
     9     3    18 1   
    10     3    28 1   
    11     4     5 1   
    12     4    19 1   
    13     4    20 1   
    14     5     6 1   
    15     5     9 1   
    16     6     7 1   
    17     6    21 1   
    18     6    22 1   
    19     7     8 1   
    20     7    23 1   
    21     7    24 1   
    22     8    25 1   
    23     9    10 2   
    24     9    15 1   
    25    10    11 1   
    26    11    14 ar  
    27    12    13 ar  
    28    12    26 1   
    29    13    27 1   
    30    14    15 1   
@<TRIPOS>SUBSTRUCTURE
     1 ZVN         1 TEMP              0 ****  ****    0 ROOT
