@<TRIPOS>MOLECULE
ZVO
   22    24     1     0     0
SMALL
No Charge or Current Charge


@<TRIPOS>ATOM
      1 C           -1.0040     3.1160     0.0120 c3         1 ZVO       0.088900
      2 N           -0.8930     1.6450     0.0220 na         1 ZVO      -0.086700
      3 C1           0.4100     1.0590    -0.0280 ca         1 ZVO       0.299500
      4 N1           2.7650    -0.4880    -0.1130 nb         1 ZVO      -0.227000
      5 C2           0.4500    -0.3110    -0.0170 ca         1 ZVO      -0.261000
      6 N2           1.6200     1.6760    -0.0850 nb         1 ZVO      -0.276000
      7 C3           1.5580    -1.0790    -0.0560 ca         1 ZVO       0.167500
      8 N3           1.0990    -2.3980    -0.0230 na         1 ZVO      -0.311400
      9 C4           2.7300     0.8770    -0.1250 ca         1 ZVO       0.180900
     10 N4          -2.1030     0.8680     0.0800 nc         1 ZVO      -0.571800
     11 C5          -0.3300    -2.4460     0.0390 cc         1 ZVO      -0.149100
     12 C6          -0.6720    -1.1030     0.0390 cd         1 ZVO      -0.134000
     13 C7          -1.9490    -0.4650     0.0880 cd         1 ZVO       0.595900
     14 H           -0.5540     3.5130    -0.9060 h1         1 ZVO       0.053700
     15 HA          -2.0580     3.4180     0.0540 h1         1 ZVO       0.053700
     16 HB          -0.4780     3.5310     0.8810 h1         1 ZVO       0.053700
     17 HN3          1.7110    -3.2080    -0.0390 hn         1 ZVO       0.361000
     18 H4           3.6920     1.3850    -0.1700 h5         1 ZVO       0.045100
     19 H5          -0.9200    -3.3590     0.0780 h4         1 ZVO       0.223000
     20 HN5         -3.9360    -0.6550    -0.0800 hn         1 ZVO       0.468000
     21 HN5A        -3.0570    -2.1340    -0.1850 hn         1 ZVO       0.468000
     22 N5          -3.0910    -1.1720     0.1330 nv         1 ZVO      -1.041900
@<TRIPOS>BOND
     1     1     2 1   
     2     1    14 1   
     3     1    15 1   
     4     1    16 1   
     5     2     3 1   
     6     2    10 1   
     7     3     5 ar  
     8     3     6 ar  
     9     4     7 ar  
    10     4     9 ar  
    11     5     7 ar  
    12     5    12 1   
    13     6     9 ar  
    14     7     8 1   
    15     8    11 1   
    16     8    17 1   
    17     9    18 1   
    18    10    13 2   
    19    11    12 2   
    20    11    19 1   
    21    12    13 1   
    22    13    22 1   
    23    20    22 1   
    24    21    22 1   
@<TRIPOS>SUBSTRUCTURE
     1 ZVO         1 TEMP              0 ****  ****    0 ROOT
