@<TRIPOS>MOLECULE
ZVO
   22    24     1     0     0
SMALL
bcc


@<TRIPOS>ATOM
      1 C           -1.0070     3.0460    -0.0160 c3         1 ZVO       0.059600
      2 N           -0.8020     1.6170     0.0010 na         1 ZVO      -0.057400
      3 C1           0.4120     1.0380    -0.0050 ca         1 ZVO       0.627800
      4 N1           2.7580    -0.4750     0.0110 nb         1 ZVO      -0.753000
      5 C2           0.3850    -0.3370    -0.0070 ca         1 ZVO      -0.391600
      6 N2           1.5990     1.6530    -0.0020 nb         1 ZVO      -0.802000
      7 C3           1.5490    -1.0630     0.0080 ca         1 ZVO       0.495800
      8 N3           1.1550    -2.3650     0.0230 na         1 ZVO      -0.261100
      9 C4           2.6750     0.8480     0.0040 ca         1 ZVO       0.706900
     10 N4          -1.9660     0.8830    -0.0260 nc         1 ZVO      -0.571800
     11 C5          -0.2300    -2.4510     0.0240 cc         1 ZVO      -0.099100
     12 C6          -0.7350    -1.1740     0.0030 cd         1 ZVO      -0.199300
     13 C7          -1.9710    -0.4160    -0.0070 cd         1 ZVO       0.661200
     14 H           -1.4700     3.3590    -0.9520 h1         1 ZVO       0.053700
     15 HA          -1.6490     3.3440     0.8110 h1         1 ZVO       0.053700
     16 HB          -0.0470     3.5430     0.0860 h1         1 ZVO       0.053700
     17 HN3          1.7670    -3.1660     0.0390 hn         1 ZVO       0.310700
     18 H4           3.6260     1.3710     0.0050 h5         1 ZVO       0.045100
     19 H5          -0.7110    -3.4150     0.0390 h4         1 ZVO       0.173000
     20 HN5         -3.9860    -0.5140    -0.1500 hn         1 ZVO       0.412800
     21 HN5A        -3.1960    -1.9900    -0.3450 hn         1 ZVO       0.412800
     22 N5          -3.1660    -1.0650     0.0540 nv         1 ZVO      -0.931500
@<TRIPOS>BOND
     1     1     2 1   
     2     1    14 1   
     3     1    15 1   
     4     1    16 1   
     5     2     3 1   
     6     2    10 1   
     7     3     5 ar  
     8     3     6 ar  
     9     4     7 ar  
    10     4     9 ar  
    11     5     7 ar  
    12     5    12 1   
    13     6     9 ar  
    14     7     8 1   
    15     8    11 1   
    16     8    17 1   
    17     9    18 1   
    18    10    13 2   
    19    11    12 2   
    20    11    19 1   
    21    12    13 1   
    22    13    22 1   
    23    20    22 1   
    24    21    22 1   
@<TRIPOS>SUBSTRUCTURE
     1 ZVO         1 TEMP              0 ****  ****    0 ROOT
