@<TRIPOS>MOLECULE
ZVP
   60    65     1     0     0
SMALL
No Charge or Current Charge


@<TRIPOS>ATOM
      1 C03         -6.8010     0.3890    -3.9320 c6         1 ZVP       0.121600
      2 C04         -5.9130     0.4240    -5.1880 c6         1 ZVP       0.119600
      3 C05         -5.2410     2.6310    -4.4620 ca         1 ZVP       0.046100
      4 C06         -5.4950     2.2670    -3.1130 ca         1 ZVP       0.090100
      5 C07         -5.0940     3.1350    -2.0630 ca         1 ZVP      -0.151600
      6 C08         -4.4800     4.3650    -2.4070 ca         1 ZVP      -0.049000
      7 C09         -4.2640     4.7550    -3.7480 ca         1 ZVP      -0.016000
      8 C10         -4.6420     3.8590    -4.7680 ca         1 ZVP      -0.076000
      9 C11         -5.2890     2.8320    -0.5850 c          1 ZVP       0.617700
     10 C16         -5.9670    -1.3120     1.6440 ca         1 ZVP       0.353900
     11 C17         -6.6920    -0.2250     1.1160 ca         1 ZVP      -0.166300
     12 C18         -7.9760    -0.4610     0.5910 ca         1 ZVP      -0.062000
     13 C19         -8.4730    -1.7740     0.6160 ca         1 ZVP      -0.167000
     14 C20         -7.6800    -2.7970     1.1620 ca         1 ZVP       0.340900
     15 C22         -2.9520     9.5940    -3.1970 c          1 ZVP       0.644900
     16 C23         -3.1700     9.4680    -1.7750 cc         1 ZVP      -0.507200
     17 C24         -3.7250     8.3300    -1.2410 cd         1 ZVP       0.410100
     18 C26         -2.9910     8.3090    -3.8500 cc         1 ZVP      -0.367600
     19 C27         -3.5850     7.2320    -3.2750 cd         1 ZVP       0.135100
     20 C28         -3.6300     6.0550    -4.0930 cd         1 ZVP      -0.060000
     21 C29         -3.1070     6.3310    -5.3450 cc         1 ZVP      -0.231000
     22 C30         -5.0180     7.2550     0.6610 c6         1 ZVP       0.185800
     23 C31         -4.5590     6.5170     1.9580 c6         1 ZVP       0.135300
     24 C33         -2.9380     8.2890     2.4590 c6         1 ZVP       0.135300
     25 C34         -3.3350     9.0700     1.1650 c6         1 ZVP       0.185800
     26 N13         -5.8250     1.6160    -0.2460 ns         1 ZVP      -0.497900
     27 N15         -6.4450    -2.5790     1.6700 nb         1 ZVP      -0.666000
     28 N32         -4.0480     7.4520     3.0030 n7         1 ZVP      -0.840400
     29 N35         -3.9670     8.1860     0.1310 nh         1 ZVP      -0.677400
     30 O01         -5.5850     1.7930    -5.5050 os         1 ZVP      -0.329100
     31 O02         -6.1270     1.0630    -2.8470 os         1 ZVP      -0.352100
     32 O12         -4.9870     3.6360     0.2870 o          1 ZVP      -0.623100
     33 O21         -4.2210     7.3340    -2.0600 os         1 ZVP      -0.218200
     34 S25         -2.5050     7.9850    -5.4910 ss         1 ZVP       0.343000
     35 H1          -7.7510     0.9010    -4.1380 h1         1 ZVP       0.072200
     36 H2          -7.0210    -0.6460    -3.6380 h1         1 ZVP       0.072200
     37 H3          -6.4260    -0.0370    -6.0430 h1         1 ZVP       0.072700
     38 H4          -4.9840    -0.1320    -4.9980 h1         1 ZVP       0.072700
     39 H5          -4.1360     5.0090    -1.6060 ha         1 ZVP       0.154000
     40 H6          -4.4910     4.1100    -5.8130 ha         1 ZVP       0.134000
     41 H7          -5.1600     1.1870     1.6900 h1         1 ZVP       0.060200
     42 H8          -6.7990     1.8710     1.5870 h1         1 ZVP       0.060200
     43 H10         -8.5700     0.3500     0.1740 ha         1 ZVP       0.120000
     44 H11         -9.4580    -2.0020     0.2210 ha         1 ZVP       0.126000
     45 H12         -8.0440    -3.8240     1.1930 h4         1 ZVP       0.020100
     46 H13         -2.9400    10.3460    -1.1910 ha         1 ZVP       0.208000
     47 H14         -3.0110     5.6860    -6.2070 h4         1 ZVP       0.156000
     48 H15         -5.9290     7.8280     0.8860 h1         1 ZVP       0.058700
     49 H16         -5.3030     6.4960    -0.0800 h1         1 ZVP       0.058700
     50 H17         -5.4010     5.9310     2.3570 h1         1 ZVP       0.070200
     51 H18         -3.7680     5.8010     1.6910 h1         1 ZVP       0.070200
     52 H19         -2.0800     7.6410     2.2240 h1         1 ZVP       0.070200
     53 H20         -2.5990     9.0050     3.2240 h1         1 ZVP       0.070200
     54 H21         -2.4240     9.5450     0.7760 h1         1 ZVP       0.058700
     55 H22         -4.0320     9.8780     1.4330 h1         1 ZVP       0.058700
     56 H23         -6.0580     1.0030    -1.0180 hn         1 ZVP       0.338500
     57 H24         -4.8160     8.0760     3.2810 hn         1 ZVP       0.403000
     58 O36         -2.6170    10.6350    -3.7390 o          1 ZVP      -0.576100
     59 C14         -6.0970     1.1710     1.1150 c3         1 ZVP       0.158300
     60 H9          -4.9700    -1.1670     2.0590 h4         1 ZVP       0.027100
@<TRIPOS>BOND
     1     1     2 1   
     2     1    31 1   
     3     1    35 1   
     4     1    36 1   
     5     2    30 1   
     6     2    37 1   
     7     2    38 1   
     8     3     4 ar  
     9     3     8 ar  
    10     3    30 1   
    11     4     5 ar  
    12     4    31 1   
    13     5     6 ar  
    14     5     9 1   
    15     6     7 ar  
    16     6    39 1   
    17     7     8 ar  
    18     7    20 1   
    19     8    40 1   
    20     9    26 1   
    21     9    32 2   
    22    10    11 ar  
    23    10    27 ar  
    24    10    60 1   
    25    11    12 ar  
    26    11    59 1   
    27    12    13 ar  
    28    12    43 1   
    29    13    14 ar  
    30    13    44 1   
    31    14    27 ar  
    32    14    45 1   
    33    15    16 1   
    34    15    18 1   
    35    15    58 2   
    36    16    17 2   
    37    16    46 1   
    38    17    29 1   
    39    17    33 1   
    40    18    19 2   
    41    18    34 1   
    42    19    20 1   
    43    19    33 1   
    44    20    21 2   
    45    21    34 1   
    46    21    47 1   
    47    22    23 1   
    48    22    29 1   
    49    22    48 1   
    50    22    49 1   
    51    23    28 1   
    52    23    50 1   
    53    23    51 1   
    54    24    25 1   
    55    24    28 1   
    56    24    52 1   
    57    24    53 1   
    58    25    29 1   
    59    25    54 1   
    60    25    55 1   
    61    26    56 1   
    62    26    59 1   
    63    28    57 1   
    64    41    59 1   
    65    42    59 1   
@<TRIPOS>SUBSTRUCTURE
     1 ZVP         1 TEMP              0 ****  ****    0 ROOT
