@<TRIPOS>MOLECULE
ZVP
   60    65     1     0     0
SMALL
bcc


@<TRIPOS>ATOM
      1 C03         -7.1810     0.8740    -3.9060 c6         1 ZVP       0.098400
      2 C04         -6.5290     0.9350    -5.2620 c6         1 ZVP       0.096400
      3 C05         -5.4430     2.8580    -4.4990 ca         1 ZVP       0.046100
      4 C06         -5.5030     2.3570    -3.1900 ca         1 ZVP       0.090100
      5 C07         -4.7880     3.0000    -2.1720 ca         1 ZVP      -0.151600
      6 C08         -4.0410     4.1300    -2.4890 ca         1 ZVP      -0.067000
      7 C09         -4.0210     4.6640    -3.7710 ca         1 ZVP      -0.016000
      8 C10         -4.7260     4.0080    -4.7760 ca         1 ZVP      -0.094000
      9 C11         -4.7540     2.5930    -0.7230 c          1 ZVP       0.684700
     10 C16         -5.7470    -1.2630     0.7320 ca         1 ZVP       0.419200
     11 C17         -6.3720    -0.0990     1.1730 ca         1 ZVP      -0.231600
     12 C18         -7.6580    -0.2170     1.6800 ca         1 ZVP      -0.080000
     13 C19         -8.2540    -1.4680     1.7280 ca         1 ZVP      -0.250300
     14 C20         -7.5380    -2.5590     1.2600 ca         1 ZVP       0.406200
     15 C22         -2.2690     9.2880    -2.9250 c          1 ZVP       0.644900
     16 C23         -2.9050     9.2360    -1.6430 cc         1 ZVP      -0.457200
     17 C24         -3.5880     8.1250    -1.1950 cd         1 ZVP       0.410100
     18 C26         -2.4440     8.0590    -3.6800 cc         1 ZVP      -0.222700
     19 C27         -3.1620     7.0120    -3.1920 cd         1 ZVP       0.135100
     20 C28         -3.2730     5.8930    -4.0660 cd         1 ZVP      -0.060000
     21 C29         -2.6010     6.1650    -5.2260 cc         1 ZVP      -0.104100
     22 C30         -5.1010     6.8740     0.2980 c6         1 ZVP       0.185800
     23 C31         -4.8210     6.2920     1.6770 c6         1 ZVP       0.135300
     24 C33         -3.8860     8.3610     2.4000 c6         1 ZVP       0.135300
     25 C34         -4.1200     8.9880     1.0270 c6         1 ZVP       0.185800
     26 N13         -5.6050     1.6450    -0.3090 ns         1 ZVP      -0.564900
     27 N15         -6.3060    -2.4630     0.7700 nb         1 ZVP      -0.666000
     28 N32         -4.8030     7.2880     2.7310 n7         1 ZVP      -0.785200
     29 N35         -4.1570     7.9530     0.0060 nh         1 ZVP      -0.677400
     30 O01         -6.0910     2.2590    -5.5230 os         1 ZVP      -0.305900
     31 O02         -6.2380     1.2600    -2.9090 os         1 ZVP      -0.328900
     32 O12         -3.9760     3.1430     0.0480 o          1 ZVP      -0.623100
     33 O21         -3.7360     7.0440    -1.9800 os         1 ZVP      -0.218200
     34 S25         -1.8670     7.7140    -5.2560 ss         1 ZVP       0.053200
     35 H1          -8.0530     1.5320    -3.8640 h1         1 ZVP       0.072200
     36 H2          -7.4930    -0.1400    -3.6670 h1         1 ZVP       0.072200
     37 H3          -7.2430     0.6720    -6.0400 h1         1 ZVP       0.072700
     38 H4          -5.6840     0.2400    -5.3150 h1         1 ZVP       0.072700
     39 H5          -3.4660     4.5850    -1.6970 ha         1 ZVP       0.172000
     40 H6          -4.7340     4.3910    -5.7890 ha         1 ZVP       0.152000
     41 H7          -4.6550     1.1390     1.4720 h1         1 ZVP       0.060200
     42 H8          -6.1880     1.9690     1.6860 h1         1 ZVP       0.060200
     43 H10         -8.1880     0.6590     2.0360 ha         1 ZVP       0.138000
     44 H11         -9.2540    -1.5990     2.1190 ha         1 ZVP       0.144000
     45 H12         -7.9750    -3.5510     1.2840 h4         1 ZVP       0.020100
     46 H13         -2.8390    10.1110    -1.0140 ha         1 ZVP       0.158000
     47 H14         -2.4890     5.5050    -6.0730 h4         1 ZVP       0.174000
     48 H15         -6.1190     7.2820     0.2700 h1         1 ZVP       0.058700
     49 H16         -5.0420     6.0870    -0.4470 h1         1 ZVP       0.058700
     50 H17         -5.5780     5.5380     1.8990 h1         1 ZVP       0.070200
     51 H18         -3.8560     5.7780     1.6600 h1         1 ZVP       0.070200
     52 H19         -2.8660     7.9670     2.4310 h1         1 ZVP       0.070200
     53 H20         -3.9520     9.1440     3.1570 h1         1 ZVP       0.070200
     54 H21         -3.3170     9.6930     0.8270 h1         1 ZVP       0.058700
     55 H22         -5.0630     9.5490     1.0150 h1         1 ZVP       0.058700
     56 H23         -6.2660     1.2530    -0.9600 hn         1 ZVP       0.338500
     57 H24         -5.7350     7.6670     2.8510 hn         1 ZVP       0.347800
     58 O36         -1.6470    10.2520    -3.3730 o          1 ZVP      -0.576100
     59 C14         -5.6690     1.2250     1.0760 c3         1 ZVP       0.158300
     60 H9          -4.7380    -1.2120     0.3300 h4         1 ZVP       0.027100
@<TRIPOS>BOND
     1     1     2 1   
     2     1    31 1   
     3     1    35 1   
     4     1    36 1   
     5     2    30 1   
     6     2    37 1   
     7     2    38 1   
     8     3     4 ar  
     9     3     8 ar  
    10     3    30 1   
    11     4     5 ar  
    12     4    31 1   
    13     5     6 ar  
    14     5     9 1   
    15     6     7 ar  
    16     6    39 1   
    17     7     8 ar  
    18     7    20 1   
    19     8    40 1   
    20     9    26 1   
    21     9    32 2   
    22    10    11 ar  
    23    10    27 ar  
    24    10    60 1   
    25    11    12 ar  
    26    11    59 1   
    27    12    13 ar  
    28    12    43 1   
    29    13    14 ar  
    30    13    44 1   
    31    14    27 ar  
    32    14    45 1   
    33    15    16 1   
    34    15    18 1   
    35    15    58 2   
    36    16    17 2   
    37    16    46 1   
    38    17    29 1   
    39    17    33 1   
    40    18    19 2   
    41    18    34 1   
    42    19    20 1   
    43    19    33 1   
    44    20    21 2   
    45    21    34 1   
    46    21    47 1   
    47    22    23 1   
    48    22    29 1   
    49    22    48 1   
    50    22    49 1   
    51    23    28 1   
    52    23    50 1   
    53    23    51 1   
    54    24    25 1   
    55    24    28 1   
    56    24    52 1   
    57    24    53 1   
    58    25    29 1   
    59    25    54 1   
    60    25    55 1   
    61    26    56 1   
    62    26    59 1   
    63    28    57 1   
    64    41    59 1   
    65    42    59 1   
@<TRIPOS>SUBSTRUCTURE
     1 ZVP         1 TEMP              0 ****  ****    0 ROOT
