@<TRIPOS>MOLECULE
ZVR
   53    55     1     0     0
SMALL
No Charge or Current Charge


@<TRIPOS>ATOM
      1 C20        -36.5610    75.8150     2.7530 c3         1 ZVR      -0.048300
      2 C23        -39.4000    78.5520     2.8030 c          1 ZVR       0.714000
      3 C26        -35.2750    76.6190     3.1180 c          1 ZVR       0.721000
      4 C29        -35.3920    66.0540     6.0930 c3         1 ZVR       0.072600
      5 C17        -37.1770    73.3480     2.9420 c          1 ZVR       0.591700
      6 N19        -36.5070    74.4720     3.3790 ns         1 ZVR      -0.433900
      7 C13        -36.2310    71.9560     4.9180 ca         1 ZVR       0.194000
      8 C32        -36.8230    69.5990     5.1550 ca         1 ZVR      -0.074300
      9 C12        -37.0220    72.0680     3.7440 ca         1 ZVR      -0.149600
     10 C02        -38.1890    62.6020     3.4680 cc         1 ZVR       0.683800
     11 C04        -36.3060    64.0580     3.6510 c          1 ZVR       0.617600
     12 C05        -38.4060    64.1410     6.6220 cc         1 ZVR      -0.192000
     13 C06        -37.4890    65.0510     7.0860 cd         1 ZVR      -0.141000
     14 C08        -36.8870    64.3390     4.9540 cc         1 ZVR      -0.316600
     15 C09        -38.0300    63.7480     5.3840 cd         1 ZVR       0.172400
     16 C14        -37.7060    70.9110     3.2990 ca         1 ZVR      -0.047000
     17 C15        -36.1360    70.7360     5.6080 ca         1 ZVR      -0.172000
     18 C16        -37.6070    69.6940     3.9950 ca         1 ZVR      -0.145000
     19 C21        -37.8640    76.5650     3.1400 c3         1 ZVR      -0.047400
     20 C22        -38.0520    77.9210     2.4140 c3         1 ZVR      -0.193400
     21 C30        -35.5880    67.3850     5.3320 c3         1 ZVR      -0.096400
     22 N01        -38.7490    62.8290     4.6380 nd         1 ZVR      -0.664100
     23 N03        -37.0540    63.1540     2.9750 ns         1 ZVR      -0.446400
     24 N07        -36.5620    65.1600     6.0370 na         1 ZVR       0.064000
     25 O18        -37.8710    73.3890     1.9330 o          1 ZVR      -0.645100
     26 O24        -40.3850    78.2690     2.1390 o          1 ZVR      -0.768500
     27 O25        -39.4380    79.2780     3.7850 o          1 ZVR      -0.768500
     28 O27        -34.5870    77.0540     2.2050 o          1 ZVR      -0.738500
     29 O28        -34.9300    76.6630     4.2920 o          1 ZVR      -0.738500
     30 H1         -36.5550    75.6750     1.6640 h1         1 ZVR       0.052700
     31 H2         -34.5310    65.5210     5.6700 h1         1 ZVR       0.057700
     32 H3         -35.1610    66.2670     7.1440 h1         1 ZVR       0.057700
     33 H4         -35.9440    74.3660     4.2160 hn         1 ZVR       0.338500
     34 H5         -39.2860    63.7950     7.1550 ha         1 ZVR       0.143000
     35 H6         -37.4220    65.6020     8.0170 h4         1 ZVR       0.145000
     36 H7         -38.3240    70.9480     2.4030 ha         1 ZVR       0.141000
     37 H8         -35.5210    70.6790     6.5020 ha         1 ZVR       0.112000
     38 H9         -38.1420    68.8220     3.6270 ha         1 ZVR       0.104000
     39 H10        -37.8790    76.7290     4.2250 hc         1 ZVR       0.030700
     40 H11        -38.7250    75.9250     2.9080 hc         1 ZVR       0.030700
     41 H12        -38.0330    77.6940     1.3410 hc         1 ZVR       0.030700
     42 H13        -37.2260    78.5630     2.7450 hc         1 ZVR       0.030700
     43 H14        -34.6440    67.9430     5.3590 hc         1 ZVR       0.066700
     44 H15        -35.7960    67.1720     4.2760 hc         1 ZVR       0.066700
     45 H18        -36.7420    62.9110     2.0500 hn         1 ZVR       0.320500
     46 H19        -39.5240    61.1970     3.1330 hn         1 ZVR       0.480000
     47 H20        -38.2200    61.2130     2.0220 hn         1 ZVR       0.480000
     48 C31        -36.7120    68.2780     5.9030 c3         1 ZVR      -0.028100
     49 N11        -38.7960    61.7310     2.6750 nv         1 ZVR      -1.032200
     50 H16        -36.5210    68.4620     6.9680 hc         1 ZVR       0.043200
     51 H17        -37.6670    67.7420     5.8510 hc         1 ZVR       0.043200
     52 F33        -35.5410    73.0050     5.4180 f          1 ZVR      -0.161000
     53 O10        -35.2850    64.5500     3.1980 o          1 ZVR      -0.560000
@<TRIPOS>BOND
     1     1     3 1   
     2     1     6 1   
     3     1    19 1   
     4     1    30 1   
     5     2    20 1   
     6     2    26 1   
     7     2    27 1   
     8     3    28 1   
     9     3    29 1   
    10     4    21 1   
    11     4    24 1   
    12     4    31 1   
    13     4    32 1   
    14     5     6 1   
    15     5     9 1   
    16     5    25 2   
    17     6    33 1   
    18     7     9 ar  
    19     7    17 ar  
    20     7    52 1   
    21     8    17 ar  
    22     8    18 ar  
    23     8    48 1   
    24     9    16 ar  
    25    10    22 2   
    26    10    23 1   
    27    10    49 1   
    28    11    14 1   
    29    11    23 1   
    30    11    53 2   
    31    12    13 2   
    32    12    15 1   
    33    12    34 1   
    34    13    24 1   
    35    13    35 1   
    36    14    15 2   
    37    14    24 1   
    38    15    22 1   
    39    16    18 ar  
    40    16    36 1   
    41    17    37 1   
    42    18    38 1   
    43    19    20 1   
    44    19    39 1   
    45    19    40 1   
    46    20    41 1   
    47    20    42 1   
    48    21    43 1   
    49    21    44 1   
    50    21    48 1   
    51    23    45 1   
    52    46    49 1   
    53    47    49 1   
    54    48    50 1   
    55    48    51 1   
@<TRIPOS>SUBSTRUCTURE
     1 ZVR         1 TEMP              0 ****  ****    0 ROOT
