@<TRIPOS>MOLECULE
ZVR
   53    55     1     0     0
SMALL
abcg2


@<TRIPOS>ATOM
      1 C20        -36.7730    75.6910     3.3910 c3         1 ZVR      -0.048300
      2 C23        -39.9000    77.1620     1.4450 c          1 ZVR       0.714000
      3 C26        -36.4430    76.7270     4.4940 c          1 ZVR       0.721000
      4 C29        -34.9180    65.7870     5.6950 c3         1 ZVR       0.072600
      5 C17        -36.3750    73.2670     3.2120 c          1 ZVR       0.591700
      6 N19        -36.5600    74.3670     3.9410 ns         1 ZVR      -0.433900
      7 C13        -35.4970    71.8060     5.1280 ca         1 ZVR       0.194000
      8 C32        -36.0310    69.4720     5.2510 ca         1 ZVR      -0.074300
      9 C12        -36.2380    71.9800     3.9700 ca         1 ZVR      -0.149600
     10 C02        -39.1660    63.7690     3.4760 cc         1 ZVR       0.683800
     11 C04        -36.8500    64.5950     3.4700 c          1 ZVR       0.617600
     12 C05        -38.1410    64.5600     6.8440 cc         1 ZVR      -0.192000
     13 C06        -36.8720    65.0570     7.0400 cd         1 ZVR      -0.141000
     14 C08        -37.0620    64.7310     4.8700 cc         1 ZVR      -0.316600
     15 C09        -38.2720    64.3510     5.4530 cd         1 ZVR       0.172400
     16 C14        -36.8670    70.8460     3.4520 ca         1 ZVR      -0.047000
     17 C15        -35.3760    70.5840     5.7640 ca         1 ZVR      -0.172000
     18 C16        -36.7830    69.6220     4.0850 ca         1 ZVR      -0.145000
     19 C21        -38.2240    75.8380     2.9030 c3         1 ZVR      -0.047400
     20 C22        -38.5030    77.0950     2.0980 c3         1 ZVR      -0.193400
     21 C30        -35.0140    67.1880     5.1010 c3         1 ZVR      -0.096400
     22 N01        -39.3360    63.8610     4.7590 nd         1 ZVR      -0.664100
     23 N03        -37.9980    64.1120     2.8470 ns         1 ZVR      -0.446400
     24 N07        -36.2130    65.1540     5.8630 na         1 ZVR       0.064000
     25 O18        -36.3490    73.2530     1.9860 o          1 ZVR      -0.645100
     26 O24        -40.6620    76.1840     1.5870 o          1 ZVR      -0.768500
     27 O25        -40.1510    78.2110     0.8140 o          1 ZVR      -0.768500
     28 O27        -36.0970    77.8560     4.1100 o          1 ZVR      -0.738500
     29 O28        -36.5850    76.3370     5.6730 o          1 ZVR      -0.738500
     30 H1         -36.0970    75.8360     2.5450 h1         1 ZVR       0.052700
     31 H2         -34.2890    65.1590     5.0670 h1         1 ZVR       0.057700
     32 H3         -34.4550    65.8260     6.6820 h1         1 ZVR       0.057700
     33 H4         -36.6260    74.3260     4.9480 hn         1 ZVR       0.338500
     34 H5         -38.8790    64.3690     7.6070 ha         1 ZVR       0.143000
     35 H6         -36.3900    65.3570     7.9580 h4         1 ZVR       0.145000
     36 H7         -37.4470    70.9390     2.5430 ha         1 ZVR       0.141000
     37 H8         -34.7710    70.5060     6.6600 ha         1 ZVR       0.112000
     38 H9         -37.3030    68.7680     3.6690 ha         1 ZVR       0.104000
     39 H10        -38.8880    75.7860     3.7720 hc         1 ZVR       0.030700
     40 H11        -38.4610    74.9680     2.2880 hc         1 ZVR       0.030700
     41 H12        -37.7550    77.1910     1.3010 hc         1 ZVR       0.030700
     42 H13        -38.3680    77.9860     2.7160 hc         1 ZVR       0.030700
     43 H14        -34.0020    67.5970     5.0510 hc         1 ZVR       0.066700
     44 H15        -35.3710    67.1210     4.0720 hc         1 ZVR       0.066700
     45 H18        -37.9380    64.0110     1.8420 hn         1 ZVR       0.320500
     46 H19        -40.9540    62.9240     3.1430 hn         1 ZVR       0.480000
     47 H20        -39.9670    62.9780     1.7680 hn         1 ZVR       0.480000
     48 C31        -35.9110    68.1270     5.9070 c3         1 ZVR      -0.028100
     49 N11        -40.1790    63.3630     2.6740 nv         1 ZVR      -1.032200
     50 H16        -35.5180    68.2380     6.9200 hc         1 ZVR       0.043200
     51 H17        -36.9090    67.6920     6.0000 hc         1 ZVR       0.043200
     52 F33        -34.8430    72.8510     5.6620 f          1 ZVR      -0.161000
     53 O10        -35.8450    64.8370     2.8160 o          1 ZVR      -0.560000
@<TRIPOS>BOND
     1     1     3 1   
     2     1     6 1   
     3     1    19 1   
     4     1    30 1   
     5     2    20 1   
     6     2    26 1   
     7     2    27 1   
     8     3    28 1   
     9     3    29 1   
    10     4    21 1   
    11     4    24 1   
    12     4    31 1   
    13     4    32 1   
    14     5     6 1   
    15     5     9 1   
    16     5    25 2   
    17     6    33 1   
    18     7     9 ar  
    19     7    17 ar  
    20     7    52 1   
    21     8    17 ar  
    22     8    18 ar  
    23     8    48 1   
    24     9    16 ar  
    25    10    22 2   
    26    10    23 1   
    27    10    49 1   
    28    11    14 1   
    29    11    23 1   
    30    11    53 2   
    31    12    13 2   
    32    12    15 1   
    33    12    34 1   
    34    13    24 1   
    35    13    35 1   
    36    14    15 2   
    37    14    24 1   
    38    15    22 1   
    39    16    18 ar  
    40    16    36 1   
    41    17    37 1   
    42    18    38 1   
    43    19    20 1   
    44    19    39 1   
    45    19    40 1   
    46    20    41 1   
    47    20    42 1   
    48    21    43 1   
    49    21    44 1   
    50    21    48 1   
    51    23    45 1   
    52    46    49 1   
    53    47    49 1   
    54    48    50 1   
    55    48    51 1   
@<TRIPOS>SUBSTRUCTURE
     1 ZVR         1 TEMP              0 ****  ****    0 ROOT
