@<TRIPOS>MOLECULE
ZVS
   52    54     1     0     0
SMALL
abcg2


@<TRIPOS>ATOM
      1 FAE         -8.0610     0.6160    -1.7690 f          1 ZVS      -0.109000
      2 CBF         -7.1150     0.1760    -0.9320 c3         1 ZVS       0.359300
      3 FAF         -7.7310    -0.5940    -0.0300 f          1 ZVS      -0.109000
      4 FAG         -6.3070    -0.6160    -1.6500 f          1 ZVS      -0.109000
      5 CBA         -6.3640     1.3120    -0.2970 ca         1 ZVS      -0.155300
      6 CAK         -6.9330     2.5780    -0.2880 ca         1 ZVS      -0.069000
      7 CAI         -6.2570     3.6500     0.2760 ca         1 ZVS      -0.101000
      8 CAH         -5.0000     3.4650     0.8230 ca         1 ZVS      -0.084000
      9 CAJ         -4.4220     2.2040     0.8080 ca         1 ZVS      -0.092000
     10 CAZ         -5.0970     1.1190     0.2610 ca         1 ZVS      -0.100600
     11 CAW         -4.4500    -0.2320     0.3570 c          1 ZVS       0.613700
     12 OAC         -4.9740    -1.1590     0.9460 o          1 ZVS      -0.581100
     13 NAT         -3.2370    -0.2960    -0.2150 ns         1 ZVS      -0.495900
     14 CBD         -2.4240    -1.4890    -0.1870 c3         1 ZVS       0.096400
     15 CAA         -2.7850    -2.4530    -1.3190 c3         1 ZVS      -0.113100
     16 CBC         -0.9940    -1.0640    -0.2710 cc         1 ZVS       0.378800
     17 NBE          0.0670    -1.8540     0.0350 na         1 ZVS      -0.346000
     18 CAB          0.0760    -3.2090     0.5380 c3         1 ZVS       0.055900
     19 NAS         -0.5800     0.0920    -0.6920 nd         1 ZVS      -0.369000
     20 NAR          0.7790     0.0870    -0.6780 nd         1 ZVS      -0.358000
     21 CBB          1.1480    -1.0820    -0.2420 cc         1 ZVS       0.482800
     22 SAV          2.7640    -1.6730    -0.0060 ss         1 ZVS      -0.336300
     23 CAQ          3.6900    -0.1490    -0.3510 c3         1 ZVS       0.051600
     24 CAP          5.1470    -0.4240    -0.0280 c3         1 ZVS       0.169600
     25 OAU          5.8530     0.7540    -0.3380 os         1 ZVS      -0.339100
     26 CAY          7.1940     0.7680    -0.1700 ca         1 ZVS       0.125100
     27 CAN          7.8500     1.9340    -0.5620 ca         1 ZVS      -0.143000
     28 CAO          7.9330    -0.2850     0.3600 ca         1 ZVS      -0.143000
     29 CAM          9.3120    -0.1710     0.4950 ca         1 ZVS      -0.115000
     30 CAX          9.9380     0.9910     0.1010 ca         1 ZVS       0.136000
     31 FAD         11.2680     1.1020     0.2320 f          1 ZVS      -0.178000
     32 CAL          9.2200     2.0490    -0.4280 ca         1 ZVS      -0.115000
     33 HAK         -7.9060     2.7510    -0.7260 ha         1 ZVS       0.134000
     34 HAI         -6.7150     4.6290     0.2770 ha         1 ZVS       0.124000
     35 HAH         -4.4660     4.2970     1.2620 ha         1 ZVS       0.124000
     36 HAJ         -3.4430     2.0610     1.2470 ha         1 ZVS       0.131000
     37 HAT         -2.8920     0.4890    -0.7460 hn         1 ZVS       0.347500
     38 HBD         -2.5980    -1.9840     0.7720 h1         1 ZVS       0.081700
     39 HAA1        -2.1580    -3.3450    -1.3020 hc         1 ZVS       0.053033
     40 HAA2        -3.8200    -2.7750    -1.2220 hc         1 ZVS       0.053033
     41 HAA3        -2.6590    -1.9710    -2.2880 hc         1 ZVS       0.053033
     42 HAB1         0.3270    -3.9170    -0.2500 h1         1 ZVS       0.064033
     43 HAB2         0.7980    -3.3030     1.3460 h1         1 ZVS       0.064033
     44 HAB3        -0.9020    -3.4610     0.9380 h1         1 ZVS       0.064033
     45 HAQ1         3.5690     0.1170    -1.4000 h1         1 ZVS       0.097700
     46 HAQ2         3.3000     0.6560     0.2700 h1         1 ZVS       0.097700
     47 HAP1         5.2540    -0.6820     1.0320 h1         1 ZVS       0.044700
     48 HAP2         5.5180    -1.2690    -0.6210 h1         1 ZVS       0.044700
     49 HAN          7.2760     2.7520    -0.9760 ha         1 ZVS       0.126500
     50 HAO          7.4600    -1.2030     0.6800 ha         1 ZVS       0.126500
     51 HAL          9.7280     2.9530    -0.7350 ha         1 ZVS       0.132500
     52 HAM          9.8870    -0.9890     0.9070 ha         1 ZVS       0.132500
@<TRIPOS>BOND
     1     1     2 1   
     2     2     3 1   
     3     2     4 1   
     4     2     5 1   
     5     5     6 ar  
     6     5    10 ar  
     7     6     7 ar  
     8     6    33 1   
     9     7     8 ar  
    10     7    34 1   
    11     8     9 ar  
    12     8    35 1   
    13     9    10 ar  
    14     9    36 1   
    15    10    11 1   
    16    11    12 2   
    17    11    13 1   
    18    13    14 1   
    19    13    37 1   
    20    14    15 1   
    21    14    16 1   
    22    14    38 1   
    23    15    39 1   
    24    15    40 1   
    25    15    41 1   
    26    16    17 1   
    27    16    19 2   
    28    17    18 1   
    29    17    21 1   
    30    18    42 1   
    31    18    43 1   
    32    18    44 1   
    33    19    20 1   
    34    20    21 2   
    35    21    22 1   
    36    22    23 1   
    37    23    24 1   
    38    23    45 1   
    39    23    46 1   
    40    24    25 1   
    41    24    47 1   
    42    24    48 1   
    43    25    26 1   
    44    26    27 ar  
    45    26    28 ar  
    46    27    32 ar  
    47    27    49 1   
    48    28    29 ar  
    49    28    50 1   
    50    29    30 ar  
    51    29    52 1   
    52    30    31 1   
    53    30    32 ar  
    54    32    51 1   
@<TRIPOS>SUBSTRUCTURE
     1 ZVS         1 TEMP              0 ****  ****    0 ROOT
