@<TRIPOS>MOLECULE
ZVS
   52    54     1     0     0
SMALL
No Charge or Current Charge


@<TRIPOS>ATOM
      1 FAE         -8.8210     0.4750    -0.9460 f          1 ZVS      -0.109000
      2 CBF         -7.6260     0.0650    -0.4610 c3         1 ZVS       0.359300
      3 FAF         -7.9010    -0.7290     0.5980 f          1 ZVS      -0.109000
      4 FAG         -7.0880    -0.7140    -1.4280 f          1 ZVS      -0.109000
      5 CBA         -6.7020     1.2430    -0.0740 ca         1 ZVS      -0.155300
      6 CAK         -7.2640     2.5400     0.0270 ca         1 ZVS      -0.069000
      7 CAI         -6.4700     3.6560     0.3220 ca         1 ZVS      -0.101000
      8 CAH         -5.0950     3.5020     0.5250 ca         1 ZVS      -0.084000
      9 CAJ         -4.5150     2.2290     0.4420 ca         1 ZVS      -0.092000
     10 CAZ         -5.2960     1.0810     0.1510 ca         1 ZVS      -0.100600
     11 CAW         -4.5960    -0.2690     0.1140 c          1 ZVS       0.613700
     12 OAC         -5.0920    -1.2990     0.5480 o          1 ZVS      -0.581100
     13 NAT         -3.3060    -0.2520    -0.3690 ns         1 ZVS      -0.495900
     14 CBD         -2.4250    -1.4280    -0.4810 c3         1 ZVS       0.096400
     15 CAA         -2.8030    -2.2620    -1.7240 c3         1 ZVS      -0.113100
     16 CBC         -0.9490    -1.0590    -0.4740 cc         1 ZVS       0.378800
     17 NBE          0.0710    -1.8410     0.0330 na         1 ZVS      -0.346000
     18 CAB         -0.0200    -3.1700     0.6680 c3         1 ZVS       0.055900
     19 NAS         -0.4420     0.0750    -0.9570 nd         1 ZVS      -0.369000
     20 NAR          0.9210     0.0560    -0.7660 nd         1 ZVS      -0.358000
     21 CBB          1.1920    -1.0890    -0.1780 cc         1 ZVS       0.482800
     22 SAV          2.7930    -1.6250     0.3180 ss         1 ZVS      -0.336300
     23 CAQ          3.8640    -0.2100    -0.2170 c3         1 ZVS       0.051600
     24 CAP          5.3380    -0.4790     0.1290 c3         1 ZVS       0.169600
     25 OAU          6.1040     0.6560    -0.3120 os         1 ZVS      -0.339100
     26 CAY          7.4720     0.7290    -0.1490 ca         1 ZVS       0.125100
     27 CAN          8.1270     1.8830    -0.6150 ca         1 ZVS      -0.143000
     28 CAO          8.2230    -0.3020     0.4630 ca         1 ZVS      -0.143000
     29 CAM          9.6180    -0.1670     0.6000 ca         1 ZVS      -0.115000
     30 CAX         10.2620     0.9890     0.1310 ca         1 ZVS       0.136000
     31 FAD         11.6000     1.1140     0.2650 f          1 ZVS      -0.178000
     32 CAL          9.5210     2.0150    -0.4770 ca         1 ZVS      -0.115000
     33 HAK         -8.3290     2.7000    -0.1280 ha         1 ZVS       0.134000
     34 HAI         -6.9230     4.6430     0.3920 ha         1 ZVS       0.124000
     35 HAH         -4.4790     4.3680     0.7580 ha         1 ZVS       0.124000
     36 HAJ         -3.4490     2.1400     0.6400 ha         1 ZVS       0.131000
     37 HAT         -2.9620     0.6370    -0.7140 hn         1 ZVS       0.347500
     38 HBD         -2.6010    -2.0510     0.4050 h1         1 ZVS       0.081700
     39 HAA1        -2.1780    -3.1610    -1.7900 hc         1 ZVS       0.053033
     40 HAA2        -3.8510    -2.5810    -1.6770 hc         1 ZVS       0.053033
     41 HAA3        -2.6600    -1.6780    -2.6410 hc         1 ZVS       0.053033
     42 HAB1         0.8410    -3.7850     0.3770 h1         1 ZVS       0.064033
     43 HAB2        -0.0270    -3.0570     1.7600 h1         1 ZVS       0.064033
     44 HAB3        -0.9370    -3.6840     0.3540 h1         1 ZVS       0.064033
     45 HAQ1         3.7630    -0.0670    -1.3000 h1         1 ZVS       0.097700
     46 HAQ2         3.5320     0.7070     0.2880 h1         1 ZVS       0.097700
     47 HAP1         5.4390    -0.6180     1.2130 h1         1 ZVS       0.044700
     48 HAP2         5.6700    -1.3940    -0.3780 h1         1 ZVS       0.044700
     49 HAN          7.5510     2.6760    -1.0860 ha         1 ZVS       0.126500
     50 HAO          7.7470    -1.2050     0.8330 ha         1 ZVS       0.126500
     51 HAL         10.0260     2.9070    -0.8380 ha         1 ZVS       0.132500
     52 HAM         10.2000    -0.9570     1.0700 ha         1 ZVS       0.132500
@<TRIPOS>BOND
     1     1     2 1   
     2     2     3 1   
     3     2     4 1   
     4     2     5 1   
     5     5     6 ar  
     6     5    10 ar  
     7     6     7 ar  
     8     6    33 1   
     9     7     8 ar  
    10     7    34 1   
    11     8     9 ar  
    12     8    35 1   
    13     9    10 ar  
    14     9    36 1   
    15    10    11 1   
    16    11    12 2   
    17    11    13 1   
    18    13    14 1   
    19    13    37 1   
    20    14    15 1   
    21    14    16 1   
    22    14    38 1   
    23    15    39 1   
    24    15    40 1   
    25    15    41 1   
    26    16    17 1   
    27    16    19 2   
    28    17    18 1   
    29    17    21 1   
    30    18    42 1   
    31    18    43 1   
    32    18    44 1   
    33    19    20 1   
    34    20    21 2   
    35    21    22 1   
    36    22    23 1   
    37    23    24 1   
    38    23    45 1   
    39    23    46 1   
    40    24    25 1   
    41    24    47 1   
    42    24    48 1   
    43    25    26 1   
    44    26    27 ar  
    45    26    28 ar  
    46    27    32 ar  
    47    27    49 1   
    48    28    29 ar  
    49    28    50 1   
    50    29    30 ar  
    51    29    52 1   
    52    30    31 1   
    53    30    32 ar  
    54    32    51 1   
@<TRIPOS>SUBSTRUCTURE
     1 ZVS         1 TEMP              0 ****  ****    0 ROOT
