@<TRIPOS>MOLECULE
ZVT
   49    51     1     0     0
SMALL
bcc


@<TRIPOS>ATOM
      1 CL           6.9560     0.3370    -1.9900 cl         1 ZVT      -0.091400
      2 CAX          6.2270     1.5160    -0.9540 ca         1 ZVT       0.067400
      3 CAH          6.8610     2.7380    -0.7880 ca         1 ZVT      -0.132000
      4 CAF          6.3020     3.6880     0.0550 ca         1 ZVT      -0.104000
      5 CAG          5.1270     3.4130     0.7380 ca         1 ZVT      -0.133000
      6 CAI          4.5100     2.1820     0.5770 ca         1 ZVT      -0.095000
      7 CAY          5.0510     1.2210    -0.2740 ca         1 ZVT      -0.147600
      8 CAU          4.3010    -0.0570    -0.4820 c          1 ZVT       0.693700
      9 OAC          3.9040    -0.4040    -1.5800 o          1 ZVT      -0.571100
     10 NAR          4.0820    -0.7600     0.6430 ns         1 ZVT      -0.556900
     11 CBB          3.1470    -1.8570     0.6860 c3         1 ZVT       0.095400
     12 CAA          3.3520    -2.6630     1.9640 c3         1 ZVT      -0.106100
     13 CBA          1.7460    -1.3260     0.5930 cc         1 ZVT       0.371800
     14 NBC          0.6670    -2.0760     0.2450 na         1 ZVT      -0.318700
     15 CAB          0.6130    -3.4760    -0.1160 c3         1 ZVT       0.029600
     16 NAQ          1.3760    -0.1100     0.8580 nd         1 ZVT      -0.360000
     17 NAP          0.0260    -0.0360     0.6960 nd         1 ZVT      -0.363000
     18 CAZ         -0.3800    -1.2170     0.3320 cc         1 ZVT       0.485800
     19 SAT         -2.0030    -1.7290    -0.0210 ss         1 ZVT      -0.294400
     20 CAO         -2.8700    -0.1500     0.2150 c3         1 ZVT       0.004700
     21 CAN         -4.3220    -0.3710    -0.1680 c3         1 ZVT       0.145400
     22 OAS         -4.9840     0.8550     0.0620 os         1 ZVT      -0.316900
     23 CAW         -6.3160     0.9200    -0.1560 ca         1 ZVT       0.126100
     24 CAL         -6.9320     2.1310     0.1640 ca         1 ZVT      -0.162500
     25 CAM         -7.0810    -0.1250    -0.6650 ca         1 ZVT      -0.162500
     26 CAK         -8.4500     0.0400    -0.8490 ca         1 ZVT      -0.132000
     27 CAV         -9.0360     1.2430    -0.5230 ca         1 ZVT       0.098900
     28 FAD        -10.3610     1.4010    -0.6990 f          1 ZVT      -0.144900
     29 CAJ         -8.2930     2.2960    -0.0190 ca         1 ZVT      -0.132000
     30 HAH          7.7840     2.9460    -1.3120 ha         1 ZVT       0.149000
     31 HAF          6.7940     4.6440     0.1750 ha         1 ZVT       0.137000
     32 HAG          4.6900     4.1530     1.3950 ha         1 ZVT       0.141000
     33 HAI          3.5840     1.9660     1.0950 ha         1 ZVT       0.157000
     34 HAR          4.4020    -0.3840     1.5220 hn         1 ZVT       0.324500
     35 HBB          3.3360    -2.5080    -0.1710 h1         1 ZVT       0.083700
     36 HAA1         2.6460    -3.4910     2.0200 hc         1 ZVT       0.051033
     37 HAA2         4.3590    -3.0790     1.9900 hc         1 ZVT       0.051033
     38 HAA3         3.2070    -2.0400     2.8470 hc         1 ZVT       0.051033
     39 HAB1         0.2550    -4.0780     0.7180 h1         1 ZVT       0.061700
     40 HAB2        -0.0480    -3.6140    -0.9690 h1         1 ZVT       0.061700
     41 HAB3         1.6030    -3.8190    -0.4020 h1         1 ZVT       0.061700
     42 HAO1        -2.7840     0.1520     1.2580 h1         1 ZVT       0.098200
     43 HAO2        -2.4120     0.6090    -0.4180 h1         1 ZVT       0.098200
     44 HAN1        -4.3970    -0.6660    -1.2200 h1         1 ZVT       0.045200
     45 HAN2        -4.7620    -1.1690     0.4410 h1         1 ZVT       0.045200
     46 HAL         -6.3390     2.9460     0.5590 ha         1 ZVT       0.144500
     47 HAM         -6.6390    -1.0750    -0.9310 ha         1 ZVT       0.144500
     48 HAJ         -8.7690     3.2350     0.2340 ha         1 ZVT       0.150500
     49 HAK         -9.0440    -0.7730    -1.2450 ha         1 ZVT       0.150500
@<TRIPOS>BOND
     1     1     2 1   
     2     2     3 ar  
     3     2     7 ar  
     4     3     4 ar  
     5     3    30 1   
     6     4     5 ar  
     7     4    31 1   
     8     5     6 ar  
     9     5    32 1   
    10     6     7 ar  
    11     6    33 1   
    12     7     8 1   
    13     8     9 2   
    14     8    10 1   
    15    10    11 1   
    16    10    34 1   
    17    11    12 1   
    18    11    13 1   
    19    11    35 1   
    20    12    36 1   
    21    12    37 1   
    22    12    38 1   
    23    13    14 1   
    24    13    16 2   
    25    14    15 1   
    26    14    18 1   
    27    15    39 1   
    28    15    40 1   
    29    15    41 1   
    30    16    17 1   
    31    17    18 2   
    32    18    19 1   
    33    19    20 1   
    34    20    21 1   
    35    20    42 1   
    36    20    43 1   
    37    21    22 1   
    38    21    44 1   
    39    21    45 1   
    40    22    23 1   
    41    23    24 ar  
    42    23    25 ar  
    43    24    29 ar  
    44    24    46 1   
    45    25    26 ar  
    46    25    47 1   
    47    26    27 ar  
    48    26    49 1   
    49    27    28 1   
    50    27    29 ar  
    51    29    48 1   
@<TRIPOS>SUBSTRUCTURE
     1 ZVT         1 TEMP              0 ****  ****    0 ROOT
