@<TRIPOS>MOLECULE
ZVT
   49    51     1     0     0
SMALL
No Charge or Current Charge


@<TRIPOS>ATOM
      1 Cl           6.1310     0.6270    -2.9100 cl         1 ZVT      -0.183000
      2 CAX          6.0660     1.5690    -1.4170 ca         1 ZVT       0.159000
      3 CAH          6.9050     2.6950    -1.3450 ca         1 ZVT      -0.114000
      4 CAF          6.9550     3.4780    -0.1820 ca         1 ZVT      -0.086000
      5 CAG          6.1620     3.1320     0.9200 ca         1 ZVT      -0.115000
      6 CAI          5.3210     2.0080     0.8610 ca         1 ZVT      -0.077000
      7 CAY          5.2570     1.2050    -0.3080 ca         1 ZVT      -0.147600
      8 CAU          4.3310     0.0080    -0.3480 c          1 ZVT       0.626700
      9 OAC          3.8090    -0.4110    -1.3710 o          1 ZVT      -0.571100
     10 NAR          4.0410    -0.5650     0.8720 ns         1 ZVT      -0.489900
     11 CBB          3.1040    -1.6840     1.0630 c3         1 ZVT       0.095400
     12 CAA          3.3860    -2.3860     2.4050 c3         1 ZVT      -0.106100
     13 CBA          1.6460    -1.2690     0.9300 cc         1 ZVT       0.371800
     14 NBC          0.6700    -1.9800     0.2610 na         1 ZVT      -0.348000
     15 CAB          0.8100    -3.2590    -0.4630 c3         1 ZVT       0.058900
     16 NAQ          1.1110    -0.1660     1.4540 nd         1 ZVT      -0.360000
     17 NAP         -0.2230    -0.1300     1.1190 nd         1 ZVT      -0.363000
     18 CAZ         -0.4520    -1.2140     0.4100 cc         1 ZVT       0.485800
     19 SAT         -2.0040    -1.6580    -0.2920 ss         1 ZVT      -0.342300
     20 CAO         -3.0920    -0.2550     0.2400 c3         1 ZVT       0.052600
     21 CAN         -4.5260    -0.4480    -0.2800 c3         1 ZVT       0.168600
     22 OAS         -5.3080     0.6730     0.1700 os         1 ZVT      -0.340100
     23 CAW         -6.6480     0.8030    -0.1310 ca         1 ZVT       0.126100
     24 CAL         -7.3220     1.9370     0.3560 ca         1 ZVT      -0.144500
     25 CAM         -7.3530    -0.1520    -0.9000 ca         1 ZVT      -0.144500
     26 CAK         -8.7220     0.0380    -1.1730 ca         1 ZVT      -0.114000
     27 CAV         -9.3840     1.1740    -0.6810 ca         1 ZVT       0.134000
     28 FAD        -10.6970     1.3530    -0.9450 f          1 ZVT      -0.180000
     29 CAJ         -8.6900     2.1250     0.0820 ca         1 ZVT      -0.114000
     30 HAH          7.5270     2.9590    -2.1970 ha         1 ZVT       0.131000
     31 HAF          7.6060     4.3480    -0.1360 ha         1 ZVT       0.119000
     32 HAG          6.1930     3.7400     1.8220 ha         1 ZVT       0.123000
     33 HAI          4.7010     1.7880     1.7280 ha         1 ZVT       0.139000
     34 HAR          4.5120    -0.1820     1.6820 hn         1 ZVT       0.324500
     35 HBB          3.3130    -2.4130     0.2690 h1         1 ZVT       0.083700
     36 HAA1         2.7330    -3.2590     2.5250 hc         1 ZVT       0.051033
     37 HAA2         4.4260    -2.7300     2.4520 hc         1 ZVT       0.051033
     38 HAA3         3.2070    -1.7060     3.2470 hc         1 ZVT       0.051033
     39 HAB1        -0.1550    -3.7780    -0.5140 h1         1 ZVT       0.061700
     40 HAB2         1.1710    -3.0680    -1.4810 h1         1 ZVT       0.061700
     41 HAB3         1.5250    -3.9090     0.0570 h1         1 ZVT       0.061700
     42 HAO1        -3.1050    -0.2010     1.3360 h1         1 ZVT       0.098200
     43 HAO2        -2.6860     0.6870    -0.1510 h1         1 ZVT       0.098200
     44 HAN1        -4.5130    -0.4990    -1.3760 h1         1 ZVT       0.045200
     45 HAN2        -4.9330    -1.3890     0.1140 h1         1 ZVT       0.045200
     46 HAL         -6.7810     2.6720     0.9470 ha         1 ZVT       0.126500
     47 HAM         -6.8620    -1.0390    -1.2900 ha         1 ZVT       0.126500
     48 HAJ         -9.2090     3.0020     0.4600 ha         1 ZVT       0.132500
     49 HAK         -9.2680    -0.6940    -1.7630 ha         1 ZVT       0.132500
@<TRIPOS>BOND
     1     1     2 1   
     2     2     3 ar  
     3     2     7 ar  
     4     3     4 ar  
     5     3    30 1   
     6     4     5 ar  
     7     4    31 1   
     8     5     6 ar  
     9     5    32 1   
    10     6     7 ar  
    11     6    33 1   
    12     7     8 1   
    13     8     9 2   
    14     8    10 1   
    15    10    11 1   
    16    10    34 1   
    17    11    12 1   
    18    11    13 1   
    19    11    35 1   
    20    12    36 1   
    21    12    37 1   
    22    12    38 1   
    23    13    14 1   
    24    13    16 2   
    25    14    15 1   
    26    14    18 1   
    27    15    39 1   
    28    15    40 1   
    29    15    41 1   
    30    16    17 1   
    31    17    18 2   
    32    18    19 1   
    33    19    20 1   
    34    20    21 1   
    35    20    42 1   
    36    20    43 1   
    37    21    22 1   
    38    21    44 1   
    39    21    45 1   
    40    22    23 1   
    41    23    24 ar  
    42    23    25 ar  
    43    24    29 ar  
    44    24    46 1   
    45    25    26 ar  
    46    25    47 1   
    47    26    27 ar  
    48    26    49 1   
    49    27    28 1   
    50    27    29 ar  
    51    29    48 1   
@<TRIPOS>SUBSTRUCTURE
     1 ZVT         1 TEMP              0 ****  ****    0 ROOT
