@<TRIPOS>MOLECULE
ZVU
   48    50     1     0     0
SMALL
bcc


@<TRIPOS>ATOM
      1 FAE         -7.2690    -0.3010    -1.6830 f          1 ZVU      -0.230633
      2 CBD         -6.2730    -0.4400    -0.8030 c3         1 ZVU       0.723200
      3 FAF         -6.7740    -1.1190     0.2360 f          1 ZVU      -0.230633
      4 FAG         -5.3560    -1.2250    -1.3850 f          1 ZVU      -0.230633
      5 CAY         -5.6990     0.8850    -0.3920 ca         1 ZVU      -0.157300
      6 CAK         -6.4600     2.0340    -0.5670 ca         1 ZVU      -0.087000
      7 CAI         -5.9530     3.2740    -0.2050 ca         1 ZVU      -0.120000
      8 CAH         -4.6760     3.3740     0.3200 ca         1 ZVU      -0.102000
      9 CAJ         -3.9090     2.2300     0.4880 ca         1 ZVU      -0.110000
     10 CAX         -4.4120     0.9810     0.1460 ca         1 ZVU      -0.099600
     11 CAU         -3.5660    -0.2250     0.4400 c          1 ZVU       0.678700
     12 OAC         -3.9360    -1.0970     1.2090 o          1 ZVU      -0.583100
     13 NAS         -2.3750    -0.2170    -0.1730 ns         1 ZVU      -0.557900
     14 CBB         -1.4060    -1.2770    -0.0160 c3         1 ZVU       0.094400
     15 CAA         -1.6600    -2.4260    -0.9960 c3         1 ZVU      -0.113100
     16 CBA         -0.0460    -0.6890    -0.2120 cc         1 ZVU       0.375800
     17 NBC          1.1140    -1.2950     0.1520 na         1 ZVU      -0.317700
     18 CAB          1.2980    -2.5640     0.8220 c3         1 ZVU       0.027600
     19 NAR          0.2080     0.4430    -0.7960 nd         1 ZVU      -0.370000
     20 NAQ          1.5580     0.6040    -0.8370 nd         1 ZVU      -0.369000
     21 CAZ          2.0830    -0.4430    -0.2680 cc         1 ZVU       0.482800
     22 SAT          3.7740    -0.7790    -0.0300 ss         1 ZVU      -0.296400
     23 CAP          4.4920     0.7990    -0.6050 c3         1 ZVU       0.072000
     24 CAW          5.9760     0.6960    -0.4230 ca         1 ZVU      -0.110300
     25 CAN          6.7740     0.1600    -1.4290 ca         1 ZVU      -0.082000
     26 CAO          6.5750     1.1070     0.7640 ca         1 ZVU      -0.082000
     27 CAM          7.9460     1.0000     0.9470 ca         1 ZVU      -0.172000
     28 CAV          8.7070     0.4660    -0.0750 ca         1 ZVU       0.146900
     29 FAD         10.0340     0.3570     0.0910 f          1 ZVU      -0.139900
     30 CAL          8.1470     0.0420    -1.2660 ca         1 ZVU      -0.172000
     31 HAK         -7.4520     1.9790    -0.9940 ha         1 ZVU       0.152000
     32 HAI         -6.5590     4.1590    -0.3450 ha         1 ZVU       0.142000
     33 HAH         -4.2730     4.3380     0.5980 ha         1 ZVU       0.142000
     34 HAJ         -2.9130     2.3100     0.9060 ha         1 ZVU       0.149000
     35 HAS         -2.1730     0.5000    -0.8550 hn         1 ZVU       0.346500
     36 HBB         -1.4870    -1.6550     1.0070 h1         1 ZVU       0.083700
     37 HAA1        -1.6060    -2.0670    -2.0230 hc         1 ZVU       0.052700
     38 HAA2        -0.9280    -3.2250    -0.8730 hc         1 ZVU       0.052700
     39 HAA3        -2.6480    -2.8500    -0.8230 hc         1 ZVU       0.052700
     40 HAB1         2.1450    -2.5000     1.5010 h1         1 ZVU       0.063700
     41 HAB2         0.4150    -2.8010     1.4100 h1         1 ZVU       0.063700
     42 HAB3         1.4710    -3.3630     0.1030 h1         1 ZVU       0.063700
     43 HAP1         4.2240     0.9470    -1.6500 h1         1 ZVU       0.089200
     44 HAP2         4.0660     1.6110    -0.0170 h1         1 ZVU       0.089200
     45 HAN          6.3240    -0.1690    -2.3570 ha         1 ZVU       0.140500
     46 HAO          5.9690     1.5240     1.5590 ha         1 ZVU       0.140500
     47 HAL          8.7670    -0.3700    -2.0510 ha         1 ZVU       0.153500
     48 HAM          8.4110     1.3280     1.8670 ha         1 ZVU       0.153500
@<TRIPOS>BOND
     1     1     2 1   
     2     2     3 1   
     3     2     4 1   
     4     2     5 1   
     5     5     6 ar  
     6     5    10 ar  
     7     6     7 ar  
     8     6    31 1   
     9     7     8 ar  
    10     7    32 1   
    11     8     9 ar  
    12     8    33 1   
    13     9    10 ar  
    14     9    34 1   
    15    10    11 1   
    16    11    12 2   
    17    11    13 1   
    18    13    14 1   
    19    13    35 1   
    20    14    15 1   
    21    14    16 1   
    22    14    36 1   
    23    15    37 1   
    24    15    38 1   
    25    15    39 1   
    26    16    17 1   
    27    16    19 2   
    28    17    18 1   
    29    17    21 1   
    30    18    40 1   
    31    18    41 1   
    32    18    42 1   
    33    19    20 1   
    34    20    21 2   
    35    21    22 1   
    36    22    23 1   
    37    23    24 1   
    38    23    43 1   
    39    23    44 1   
    40    24    25 ar  
    41    24    26 ar  
    42    25    30 ar  
    43    25    45 1   
    44    26    27 ar  
    45    26    46 1   
    46    27    28 ar  
    47    27    48 1   
    48    28    29 1   
    49    28    30 ar  
    50    30    47 1   
@<TRIPOS>SUBSTRUCTURE
     1 ZVU         1 TEMP              0 ****  ****    0 ROOT
