@<TRIPOS>MOLECULE
ZVU
   48    50     1     0     0
SMALL
No Charge or Current Charge


@<TRIPOS>ATOM
      1 FAE         -7.9970    -0.2660    -0.7070 f          1 ZVU      -0.109333
      2 CBD         -6.7400    -0.4510    -0.2420 c3         1 ZVU       0.359300
      3 FAF         -6.8670    -1.1030     0.9360 f          1 ZVU      -0.109333
      4 FAG         -6.1480    -1.2980    -1.1170 f          1 ZVU      -0.109333
      5 CAY         -5.9580     0.8730    -0.0860 ca         1 ZVU      -0.157300
      6 CAK         -6.6760     2.0940    -0.1400 ca         1 ZVU      -0.069000
      7 CAI         -6.0190     3.3290    -0.0580 ca         1 ZVU      -0.102000
      8 CAH         -4.6290     3.3730     0.0810 ca         1 ZVU      -0.084000
      9 CAJ         -3.8950     2.1810     0.1480 ca         1 ZVU      -0.092000
     10 CAX         -4.5350     0.9170     0.0750 ca         1 ZVU      -0.099600
     11 CAU         -3.6710    -0.3300     0.1910 c          1 ZVU       0.611700
     12 OAC         -4.0130    -1.3340     0.7990 o          1 ZVU      -0.583100
     13 NAS         -2.4140    -0.2310    -0.3670 ns         1 ZVU      -0.490900
     14 CBB         -1.3960    -1.2960    -0.3620 c3         1 ZVU       0.094400
     15 CAA         -1.7170    -2.3480    -1.4460 c3         1 ZVU      -0.113100
     16 CBA          0.0190    -0.7560    -0.4980 cc         1 ZVU       0.375800
     17 NBC          1.1510    -1.3250     0.0520 na         1 ZVU      -0.347000
     18 CAB          1.2590    -2.5450     0.8750 c3         1 ZVU       0.056900
     19 NAR          0.3550     0.3450    -1.1680 nd         1 ZVU      -0.370000
     20 NAQ          1.7160     0.5200    -1.0610 nd         1 ZVU      -0.369000
     21 CAZ          2.1570    -0.4840    -0.3330 cc         1 ZVU       0.482800
     22 SAT          3.8320    -0.7440     0.1350 ss         1 ZVU      -0.344300
     23 CAP          4.6820     0.6910    -0.6610 c3         1 ZVU       0.119900
     24 CAW          6.1750     0.6500    -0.3700 ca         1 ZVU      -0.110300
     25 CAN          7.0480    -0.0350    -1.2410 ca         1 ZVU      -0.064000
     26 CAO          6.6940     1.2900     0.7740 ca         1 ZVU      -0.064000
     27 CAM          8.0740     1.2490     1.0420 ca         1 ZVU      -0.154000
     28 CAV          8.9350     0.5670     0.1690 ca         1 ZVU       0.182000
     29 FAD         10.2610     0.5280     0.4280 f          1 ZVU      -0.175000
     30 CAL          8.4280    -0.0750    -0.9700 ca         1 ZVU      -0.154000
     31 HAK         -7.7590     2.1000    -0.2510 ha         1 ZVU       0.134000
     32 HAI         -6.5900     4.2540    -0.1040 ha         1 ZVU       0.124000
     33 HAH         -4.1180     4.3320     0.1490 ha         1 ZVU       0.124000
     34 HAJ         -2.8190     2.2510     0.2920 ha         1 ZVU       0.131000
     35 HAS         -2.2020     0.6300    -0.8570 hn         1 ZVU       0.346500
     36 HBB         -1.4540    -1.7950     0.6150 h1         1 ZVU       0.083700
     37 HAA1        -1.6890    -1.8960    -2.4440 hc         1 ZVU       0.052700
     38 HAA2        -0.9860    -3.1650    -1.4190 hc         1 ZVU       0.052700
     39 HAA3        -2.7130    -2.7800    -1.2900 hc         1 ZVU       0.052700
     40 HAB1         1.2890    -2.2710     1.9370 h1         1 ZVU       0.063700
     41 HAB2         0.4010    -3.2050     0.6980 h1         1 ZVU       0.063700
     42 HAB3         2.1760    -3.0900     0.6190 h1         1 ZVU       0.063700
     43 HAP1         4.5100     0.6590    -1.7440 h1         1 ZVU       0.089200
     44 HAP2         4.2520     1.6260    -0.2770 h1         1 ZVU       0.089200
     45 HAN          6.6570    -0.5370    -2.1240 ha         1 ZVU       0.122500
     46 HAO          6.0280     1.8170     1.4550 ha         1 ZVU       0.122500
     47 HAL          9.1020    -0.6020    -1.6400 ha         1 ZVU       0.135500
     48 HAM          8.4750     1.7420     1.9240 ha         1 ZVU       0.135500
@<TRIPOS>BOND
     1     1     2 1   
     2     2     3 1   
     3     2     4 1   
     4     2     5 1   
     5     5     6 ar  
     6     5    10 ar  
     7     6     7 ar  
     8     6    31 1   
     9     7     8 ar  
    10     7    32 1   
    11     8     9 ar  
    12     8    33 1   
    13     9    10 ar  
    14     9    34 1   
    15    10    11 1   
    16    11    12 2   
    17    11    13 1   
    18    13    14 1   
    19    13    35 1   
    20    14    15 1   
    21    14    16 1   
    22    14    36 1   
    23    15    37 1   
    24    15    38 1   
    25    15    39 1   
    26    16    17 1   
    27    16    19 2   
    28    17    18 1   
    29    17    21 1   
    30    18    40 1   
    31    18    41 1   
    32    18    42 1   
    33    19    20 1   
    34    20    21 2   
    35    21    22 1   
    36    22    23 1   
    37    23    24 1   
    38    23    43 1   
    39    23    44 1   
    40    24    25 ar  
    41    24    26 ar  
    42    25    30 ar  
    43    25    45 1   
    44    26    27 ar  
    45    26    46 1   
    46    27    28 ar  
    47    27    48 1   
    48    28    29 1   
    49    28    30 ar  
    50    30    47 1   
@<TRIPOS>SUBSTRUCTURE
     1 ZVU         1 TEMP              0 ****  ****    0 ROOT
