@<TRIPOS>MOLECULE
ZVV
   55    57     1     0     0
SMALL
No Charge or Current Charge


@<TRIPOS>ATOM
      1 FAE         -7.2240     0.7920     2.9010 f          1 ZVV      -0.108333
      2 CBF         -6.5130     0.2560     1.8820 c3         1 ZVV       0.358300
      3 FAF         -5.4290    -0.3150     2.4550 f          1 ZVV      -0.108333
      4 FAG         -7.2770    -0.7370     1.3720 f          1 ZVV      -0.108333
      5 CBA         -6.1290     1.2980     0.8070 ca         1 ZVV      -0.154300
      6 CAO         -6.7730     2.5610     0.8280 ca         1 ZVV      -0.067000
      7 CAK         -6.4320     3.5670    -0.0870 ca         1 ZVV      -0.102000
      8 CAJ         -5.4430     3.3330    -1.0460 ca         1 ZVV      -0.084000
      9 CAN         -4.7990     2.0890    -1.0970 ca         1 ZVV      -0.096000
     10 CAZ         -5.1270     1.0510    -0.1880 ca         1 ZVV      -0.096600
     11 CAW         -4.4050    -0.2810    -0.3340 c          1 ZVV       0.612700
     12 OAD         -4.9450    -1.3650    -0.1640 o          1 ZVV      -0.584100
     13 NAT         -3.0950    -0.2000    -0.7550 ns         1 ZVV      -0.493900
     14 CBD         -2.2180    -1.3510    -1.0310 c3         1 ZVV       0.096400
     15 CAB         -2.5160    -1.9270    -2.4320 c3         1 ZVV      -0.111100
     16 CBC         -0.7430    -1.0220    -0.8560 cc         1 ZVV       0.377800
     17 NBE          0.2330    -1.9050    -0.4390 na         1 ZVV      -0.346000
     18 CAC          0.0870    -3.3280    -0.0730 c3         1 ZVV       0.056900
     19 NAS         -0.1960     0.1710    -1.0840 nd         1 ZVV      -0.368000
     20 NAR          1.1510     0.0890    -0.8100 nd         1 ZVV      -0.358000
     21 CBB          1.3720    -1.1520    -0.4310 cc         1 ZVV       0.484800
     22 SAV          2.9300    -1.8040     0.0600 ss         1 ZVV      -0.341300
     23 CAQ          4.0470    -0.3360    -0.1260 c3         1 ZVV       0.053600
     24 CAP          5.4910    -0.6950     0.2590 c3         1 ZVV       0.169600
     25 OAU          6.2940     0.4870     0.0900 os         1 ZVV      -0.344100
     26 CAY          7.6510     0.5050     0.3530 ca         1 ZVV       0.137100
     27 CAX          8.3560     1.7140     0.1580 ca         1 ZVV      -0.100300
     28 CAA          7.6330     2.9640    -0.3320 c3         1 ZVV      -0.035800
     29 CAM          8.3390    -0.6420     0.8080 ca         1 ZVV      -0.195000
     30 CAI          9.7190    -0.5830     1.0650 ca         1 ZVV      -0.077000
     31 CAH         10.4180     0.6180     0.8700 ca         1 ZVV      -0.141000
     32 CAL          9.7410     1.7620     0.4180 ca         1 ZVV      -0.079000
     33 HAO         -7.5450     2.7810     1.5620 ha         1 ZVV       0.134000
     34 HAK         -6.9380     4.5290    -0.0500 ha         1 ZVV       0.124000
     35 HAJ         -5.1810     4.1120    -1.7590 ha         1 ZVV       0.123000
     36 HAN         -4.0580     1.9310    -1.8780 ha         1 ZVV       0.125000
     37 HAT         -2.7070     0.7310    -0.8520 hn         1 ZVV       0.349500
     38 HBD         -2.4600    -2.1270    -0.2930 h1         1 ZVV       0.083700
     39 HAB1        -1.8960    -2.8100    -2.6270 hc         1 ZVV       0.051033
     40 HAB2        -3.5670    -2.2260    -2.5160 hc         1 ZVV       0.051033
     41 HAB3        -2.3070    -1.1820    -3.2090 hc         1 ZVV       0.051033
     42 HAC1         0.9640    -3.8940    -0.4110 h1         1 ZVV       0.064033
     43 HAC2        -0.0010    -3.4200     1.0170 h1         1 ZVV       0.064033
     44 HAC3        -0.8070    -3.7560    -0.5430 h1         1 ZVV       0.064033
     45 HAQ1         4.0220     0.0090    -1.1680 h1         1 ZVV       0.097200
     46 HAQ2         3.6880     0.4770     0.5180 h1         1 ZVV       0.097200
     47 HAP1         5.5160    -1.0370     1.3020 h1         1 ZVV       0.044200
     48 HAP2         5.8510    -1.5060    -0.3880 h1         1 ZVV       0.044200
     49 HAM          7.8250    -1.5850     0.9680 ha         1 ZVV       0.114000
     50 HAA1         6.8400     3.2570     0.3650 hc         1 ZVV       0.043700
     51 HAA2         8.3140     3.8170    -0.4340 hc         1 ZVV       0.043700
     52 HAA3         7.1720     2.7920    -1.3120 hc         1 ZVV       0.043700
     53 HAL         10.2940     2.6870     0.2710 ha         1 ZVV       0.113000
     54 HAI         10.2470    -1.4680     1.4150 ha         1 ZVV       0.111000
     55 HAH         11.4870     0.6630     1.0690 ha         1 ZVV       0.115000
@<TRIPOS>BOND
     1     1     2 1   
     2     2     3 1   
     3     2     4 1   
     4     2     5 1   
     5     5     6 ar  
     6     5    10 ar  
     7     6     7 ar  
     8     6    33 1   
     9     7     8 ar  
    10     7    34 1   
    11     8     9 ar  
    12     8    35 1   
    13     9    10 ar  
    14     9    36 1   
    15    10    11 1   
    16    11    12 2   
    17    11    13 1   
    18    13    14 1   
    19    13    37 1   
    20    14    15 1   
    21    14    16 1   
    22    14    38 1   
    23    15    39 1   
    24    15    40 1   
    25    15    41 1   
    26    16    17 1   
    27    16    19 2   
    28    17    18 1   
    29    17    21 1   
    30    18    42 1   
    31    18    43 1   
    32    18    44 1   
    33    19    20 1   
    34    20    21 2   
    35    21    22 1   
    36    22    23 1   
    37    23    24 1   
    38    23    45 1   
    39    23    46 1   
    40    24    25 1   
    41    24    47 1   
    42    24    48 1   
    43    25    26 1   
    44    26    27 ar  
    45    26    29 ar  
    46    27    28 1   
    47    27    32 ar  
    48    28    50 1   
    49    28    51 1   
    50    28    52 1   
    51    29    30 ar  
    52    29    49 1   
    53    30    31 ar  
    54    30    54 1   
    55    31    32 ar  
    56    31    55 1   
    57    32    53 1   
@<TRIPOS>SUBSTRUCTURE
     1 ZVV         1 TEMP              0 ****  ****    0 ROOT
