@<TRIPOS>MOLECULE
ZVV
   55    57     1     0     0
SMALL
bcc


@<TRIPOS>ATOM
      1 FAE         -5.2610     1.6990     3.3240 f          1 ZVV      -0.229633
      2 CBF         -5.1550     0.8570     2.2890 c3         1 ZVV       0.722200
      3 FAF         -3.9220     0.3370     2.3440 f          1 ZVV      -0.229633
      4 FAG         -6.0170    -0.1400     2.5200 f          1 ZVV      -0.229633
      5 CBA         -5.4150     1.5440     0.9800 ca         1 ZVV      -0.154300
      6 CAO         -6.1260     2.7370     0.9720 ca         1 ZVV      -0.085000
      7 CAK         -6.3760     3.3980    -0.2220 ca         1 ZVV      -0.120000
      8 CAJ         -5.9010     2.8770    -1.4140 ca         1 ZVV      -0.102000
      9 CAN         -5.1820     1.6900    -1.4090 ca         1 ZVV      -0.114000
     10 CAZ         -4.9420     1.0090    -0.2220 ca         1 ZVV      -0.096600
     11 CAW         -4.2500    -0.3210    -0.3010 c          1 ZVV       0.679700
     12 OAD         -4.8030    -1.3510     0.0470 o          1 ZVV      -0.584100
     13 NAT         -3.0170    -0.2680    -0.8210 ns         1 ZVV      -0.560900
     14 CBD         -2.2190    -1.4510    -1.0590 c3         1 ZVV       0.096400
     15 CAB         -2.5290    -2.0750    -2.4210 c3         1 ZVV      -0.111100
     16 CBC         -0.7790    -1.0620    -0.9560 cc         1 ZVV       0.377800
     17 NBE          0.2430    -1.9310    -0.7500 na         1 ZVV      -0.316700
     18 CAC          0.1930    -3.3630    -0.5400 c3         1 ZVV       0.027600
     19 NAS         -0.3160     0.1430    -1.0940 nd         1 ZVV      -0.368000
     20 NAR          1.0380     0.0920    -0.9870 nd         1 ZVV      -0.358000
     21 CBB          1.3540    -1.1530    -0.7820 cc         1 ZVV       0.484800
     22 SAV          2.9410    -1.8280    -0.5620 ss         1 ZVV      -0.293400
     23 CAQ          3.9120    -0.2940    -0.4720 c3         1 ZVV       0.005700
     24 CAP          5.2950    -0.6650     0.0330 c3         1 ZVV       0.146400
     25 OAU          6.0450     0.5300     0.0320 os         1 ZVV      -0.320900
     26 CAY          7.3190     0.5030     0.4850 ca         1 ZVV       0.137100
     27 CAX          7.9920     1.7340     0.4650 ca         1 ZVV      -0.100300
     28 CAA          7.3100     2.9700    -0.0400 c3         1 ZVV      -0.035800
     29 CAM          7.9520    -0.6460     0.9480 ca         1 ZVV      -0.213000
     30 CAI          9.2650    -0.5770     1.4010 ca         1 ZVV      -0.095000
     31 CAH          9.9450     0.6280     1.3930 ca         1 ZVV      -0.159000
     32 CAL          9.3010     1.7680     0.9250 ca         1 ZVV      -0.097000
     33 HAO         -6.4880     3.1690     1.8940 ha         1 ZVV       0.152000
     34 HAK         -6.9350     4.3240    -0.2140 ha         1 ZVV       0.142000
     35 HAJ         -6.0860     3.3890    -2.3480 ha         1 ZVV       0.141000
     36 HAN         -4.8200     1.2820    -2.3440 ha         1 ZVV       0.143000
     37 HAT         -2.6090     0.6270    -1.0500 hn         1 ZVV       0.349500
     38 HBD         -2.4460    -2.1780    -0.2750 h1         1 ZVV       0.083700
     39 HAB1        -1.9170    -2.9580    -2.6050 hc         1 ZVV       0.051033
     40 HAB2        -3.5730    -2.3810    -2.4600 hc         1 ZVV       0.051033
     41 HAB3        -2.3440    -1.3570    -3.2190 hc         1 ZVV       0.051033
     42 HAC1         0.4760    -3.8970    -1.4460 h1         1 ZVV       0.064033
     43 HAC2         0.8660    -3.6420     0.2680 h1         1 ZVV       0.064033
     44 HAC3        -0.8120    -3.6560    -0.2540 h1         1 ZVV       0.064033
     45 HAQ1         3.9640     0.1580    -1.4620 h1         1 ZVV       0.097200
     46 HAQ2         3.4220     0.3960     0.2130 h1         1 ZVV       0.097200
     47 HAP1         5.2250    -1.0860     1.0410 h1         1 ZVV       0.044200
     48 HAP2         5.7580    -1.4160    -0.6170 h1         1 ZVV       0.044200
     49 HAM          7.4410    -1.6000     0.9620 ha         1 ZVV       0.132000
     50 HAA1         6.4260     3.2190     0.5500 hc         1 ZVV       0.043700
     51 HAA2         7.9860     3.8230     0.0010 hc         1 ZVV       0.043700
     52 HAA3         6.9780     2.8580    -1.0740 hc         1 ZVV       0.043700
     53 HAL          9.8290     2.7150     0.9190 ha         1 ZVV       0.131000
     54 HAI          9.7480    -1.4780     1.7580 ha         1 ZVV       0.129000
     55 HAH         10.9660     0.6870     1.7470 ha         1 ZVV       0.133000
@<TRIPOS>BOND
     1     1     2 1   
     2     2     3 1   
     3     2     4 1   
     4     2     5 1   
     5     5     6 ar  
     6     5    10 ar  
     7     6     7 ar  
     8     6    33 1   
     9     7     8 ar  
    10     7    34 1   
    11     8     9 ar  
    12     8    35 1   
    13     9    10 ar  
    14     9    36 1   
    15    10    11 1   
    16    11    12 2   
    17    11    13 1   
    18    13    14 1   
    19    13    37 1   
    20    14    15 1   
    21    14    16 1   
    22    14    38 1   
    23    15    39 1   
    24    15    40 1   
    25    15    41 1   
    26    16    17 1   
    27    16    19 2   
    28    17    18 1   
    29    17    21 1   
    30    18    42 1   
    31    18    43 1   
    32    18    44 1   
    33    19    20 1   
    34    20    21 2   
    35    21    22 1   
    36    22    23 1   
    37    23    24 1   
    38    23    45 1   
    39    23    46 1   
    40    24    25 1   
    41    24    47 1   
    42    24    48 1   
    43    25    26 1   
    44    26    27 ar  
    45    26    29 ar  
    46    27    28 1   
    47    27    32 ar  
    48    28    50 1   
    49    28    51 1   
    50    28    52 1   
    51    29    30 ar  
    52    29    49 1   
    53    30    31 ar  
    54    30    54 1   
    55    31    32 ar  
    56    31    55 1   
    57    32    53 1   
@<TRIPOS>SUBSTRUCTURE
     1 ZVV         1 TEMP              0 ****  ****    0 ROOT
