@<TRIPOS>MOLECULE
ZVW
   62    65     1     0     0
SMALL
No Charge or Current Charge


@<TRIPOS>ATOM
      1 F7         -11.7680     0.0690    -1.1730 f          1 ZVW      -0.180000
      2 C2         -10.4820     0.3190    -0.8450 ca         1 ZVW       0.134000
      3 C1         -10.0430     1.6440    -0.7000 ca         1 ZVW      -0.114000
      4 C6          -8.7030     1.9030    -0.3580 ca         1 ZVW      -0.144000
      5 C3          -9.5910    -0.7490    -0.6500 ca         1 ZVW      -0.114000
      6 C4          -8.2490    -0.4920    -0.3080 ca         1 ZVW      -0.144000
      7 C5          -7.8020     0.8410    -0.1600 ca         1 ZVW       0.126100
      8 O8          -6.5010     1.1560     0.1740 os         1 ZVW      -0.341100
      9 C9          -5.5000     0.1470     0.3970 c3         1 ZVW       0.169600
     10 C10         -4.1840     0.8630     0.7450 c3         1 ZVW       0.050600
     11 S11         -2.8290    -0.3630     1.0510 ss         1 ZVW      -0.337300
     12 C12         -1.4580     0.6780     1.4170 cc         1 ZVW       0.480800
     13 N13         -1.4930     1.9930     1.4430 nd         1 ZVW      -0.365000
     14 N14         -0.2140     2.4040     1.7440 nd         1 ZVW      -0.347000
     15 N16         -0.2110     0.1900     1.6880 na         1 ZVW      -0.347000
     16 C17          0.2320    -1.2180     1.7260 c3         1 ZVW       0.118900
     17 C18          0.9860    -1.6550     0.4740 ca         1 ZVW      -0.128300
     18 C19          2.2190    -2.3290     0.5960 ca         1 ZVW      -0.071000
     19 C20          2.9200    -2.7390    -0.5520 ca         1 ZVW      -0.154000
     20 C21          2.3890    -2.4840    -1.8240 ca         1 ZVW       0.173000
     21 F24          3.0630    -2.8780    -2.9260 f          1 ZVW      -0.177000
     22 C22          1.1610    -1.8200    -1.9570 ca         1 ZVW      -0.154000
     23 C23          0.4600    -1.4040    -0.8110 ca         1 ZVW      -0.071000
     24 C15          0.5480     1.3230     1.9020 cc         1 ZVW       0.374800
     25 C25          2.0410     1.3290     2.1920 c3         1 ZVW       0.087400
     26 C26          2.5100     2.5440     3.0210 c3         1 ZVW      -0.100100
     27 N27          2.8410     1.2170     0.9610 ns         1 ZVW      -0.501900
     28 C28          4.0110     0.4960     0.8370 c          1 ZVW       0.616700
     29 O29          4.4720    -0.1070     1.7940 o          1 ZVW      -0.587100
     30 C30          4.6020     0.4410    -0.5690 ca         1 ZVW      -0.103600
     31 C35          5.9990     0.2460    -0.8330 ca         1 ZVW      -0.151300
     32 C36          7.0640     0.1660     0.2850 c3         1 ZVW       0.359300
     33 F38          8.3280     0.2840    -0.1840 f          1 ZVW      -0.108667
     34 F37          6.9240     1.1540     1.1990 f          1 ZVW      -0.108667
     35 F39          7.0180    -1.0140     0.9440 f          1 ZVW      -0.108667
     36 C31          3.7160     0.5640    -1.6710 ca         1 ZVW      -0.099000
     37 C32          4.1730     0.4760    -2.9920 ca         1 ZVW      -0.084000
     38 C33          5.5300     0.2640    -3.2460 ca         1 ZVW      -0.097000
     39 C34          6.4320     0.1510    -2.1800 ca         1 ZVW      -0.071000
     40 H1         -10.7390     2.4660    -0.8520 ha         1 ZVW       0.133000
     41 H3          -9.9400    -1.7720    -0.7650 ha         1 ZVW       0.133000
     42 H6          -8.3600     2.9280    -0.2440 ha         1 ZVW       0.126500
     43 H4          -7.5780    -1.3340    -0.1620 ha         1 ZVW       0.126500
     44 H91C        -5.7880    -0.5100     1.2280 h1         1 ZVW       0.045700
     45 H92C        -5.3550    -0.4640    -0.5030 h1         1 ZVW       0.045700
     46 H101        -3.8980     1.5220    -0.0840 h1         1 ZVW       0.097700
     47 H102        -4.3290     1.4760     1.6440 h1         1 ZVW       0.097700
     48 H171         0.8650    -1.3630     2.6110 h1         1 ZVW       0.084700
     49 H172        -0.6400    -1.8710     1.8580 h1         1 ZVW       0.084700
     50 H19          2.6400    -2.5310     1.5790 ha         1 ZVW       0.130500
     51 H23         -0.4940    -0.8930    -0.9250 ha         1 ZVW       0.130500
     52 H20          3.8740    -3.2500    -0.4570 ha         1 ZVW       0.137000
     53 H22          0.7540    -1.6260    -2.9470 ha         1 ZVW       0.137000
     54 H25          2.2390     0.4400     2.8040 h1         1 ZVW       0.093700
     55 H261         2.3710     3.4780     2.4620 hc         1 ZVW       0.055700
     56 H262         1.9430     2.6140     3.9570 hc         1 ZVW       0.055700
     57 H263         3.5730     2.4510     3.2740 hc         1 ZVW       0.055700
     58 H27          2.5220     1.7060     0.1340 hn         1 ZVW       0.325500
     59 H31          2.6470     0.6910    -1.5180 ha         1 ZVW       0.129000
     60 H34          7.4810    -0.0100    -2.4190 ha         1 ZVW       0.136000
     61 H32          3.4710     0.5580    -3.8190 ha         1 ZVW       0.127000
     62 H33          5.8870     0.1880    -4.2720 ha         1 ZVW       0.126000
@<TRIPOS>BOND
     1     1     2 1   
     2     2     3 ar  
     3     2     5 ar  
     4     3     4 ar  
     5     3    40 1   
     6     4     7 ar  
     7     4    42 1   
     8     5     6 ar  
     9     5    41 1   
    10     6     7 ar  
    11     6    43 1   
    12     7     8 1   
    13     8     9 1   
    14     9    10 1   
    15     9    44 1   
    16     9    45 1   
    17    10    11 1   
    18    10    46 1   
    19    10    47 1   
    20    11    12 1   
    21    12    13 2   
    22    12    15 1   
    23    13    14 1   
    24    14    24 2   
    25    15    16 1   
    26    15    24 1   
    27    16    17 1   
    28    16    48 1   
    29    16    49 1   
    30    17    18 ar  
    31    17    23 ar  
    32    18    19 ar  
    33    18    50 1   
    34    19    20 ar  
    35    19    52 1   
    36    20    21 1   
    37    20    22 ar  
    38    22    23 ar  
    39    22    53 1   
    40    23    51 1   
    41    24    25 1   
    42    25    26 1   
    43    25    27 1   
    44    25    54 1   
    45    26    55 1   
    46    26    56 1   
    47    26    57 1   
    48    27    28 1   
    49    27    58 1   
    50    28    29 2   
    51    28    30 1   
    52    30    31 ar  
    53    30    36 ar  
    54    31    32 1   
    55    31    39 ar  
    56    32    33 1   
    57    32    34 1   
    58    32    35 1   
    59    36    37 ar  
    60    36    59 1   
    61    37    38 ar  
    62    37    61 1   
    63    38    39 ar  
    64    38    62 1   
    65    39    60 1   
@<TRIPOS>SUBSTRUCTURE
     1 ZVW         1 TEMP              0 ****  ****    0 ROOT
