@<TRIPOS>MOLECULE
ZVW
   62    65     1     0     0
SMALL
bcc


@<TRIPOS>ATOM
      1 F7         -11.5170    -0.3730    -0.6590 f          1 ZVW      -0.144900
      2 C2         -10.2380    -0.0370    -0.4080 ca         1 ZVW       0.098900
      3 C1          -9.9230     1.2910    -0.1830 ca         1 ZVW      -0.132000
      4 C6          -8.6070     1.6340     0.0720 ca         1 ZVW      -0.162000
      5 C3          -9.2750    -1.0210    -0.3820 ca         1 ZVW      -0.132000
      6 C4          -7.9520    -0.6740    -0.1250 ca         1 ZVW      -0.162000
      7 C5          -7.6130     0.6550     0.1030 ca         1 ZVW       0.126100
      8 O8          -6.3600     1.0890     0.3620 os         1 ZVW      -0.317900
      9 C9          -5.3050     0.1510     0.3650 c3         1 ZVW       0.146400
     10 C10         -4.0430     0.9430     0.6530 c3         1 ZVW       0.002700
     11 S11         -2.6470    -0.2200     0.6260 ss         1 ZVW      -0.289400
     12 C12         -1.3760     0.8660     1.1090 cc         1 ZVW       0.480800
     13 N13         -1.4690     2.1470     1.3100 nd         1 ZVW      -0.365000
     14 N14         -0.2400     2.5810     1.6950 nd         1 ZVW      -0.347000
     15 N16         -0.1100     0.4360     1.3420 na         1 ZVW      -0.317700
     16 C17          0.3820    -0.9210     1.2400 c3         1 ZVW       0.089600
     17 C18          0.8660    -1.3130    -0.1340 ca         1 ZVW      -0.128300
     18 C19          1.7900    -2.3490    -0.2390 ca         1 ZVW      -0.089000
     19 C20          2.2250    -2.8020    -1.4740 ca         1 ZVW      -0.172000
     20 C21          1.7240    -2.1980    -2.6110 ca         1 ZVW       0.137900
     21 F24          2.1460    -2.6200    -3.8130 f          1 ZVW      -0.141900
     22 C22          0.8140    -1.1630    -2.5470 ca         1 ZVW      -0.172000
     23 C23          0.3870    -0.7250    -1.3000 ca         1 ZVW      -0.089000
     24 C15          0.5660     1.5630     1.7130 cc         1 ZVW       0.374800
     25 C25          2.0060     1.5950     2.1200 c3         1 ZVW       0.087400
     26 C26          2.3900     2.9400     2.7210 c3         1 ZVW      -0.100100
     27 N27          2.8620     1.2770     0.9930 ns         1 ZVW      -0.568900
     28 C28          3.7280     0.2460     0.9780 c          1 ZVW       0.683700
     29 O29          3.8100    -0.5860     1.8650 o          1 ZVW      -0.587100
     30 C30          4.5670     0.1660    -0.2620 ca         1 ZVW      -0.103600
     31 C35          5.9520    -0.0310    -0.2280 ca         1 ZVW      -0.151300
     32 C36          6.7150    -0.0530     1.0670 c3         1 ZVW       0.723200
     33 F38          8.0180     0.1890     0.8770 f          1 ZVW      -0.229967
     34 F37          6.2800     0.8800     1.9230 f          1 ZVW      -0.229967
     35 F39          6.6400    -1.2350     1.6880 f          1 ZVW      -0.229967
     36 C31          3.9240     0.2250    -1.4920 ca         1 ZVW      -0.117000
     37 C32          4.6280     0.0680    -2.6760 ca         1 ZVW      -0.102000
     38 C33          5.9950    -0.1400    -2.6370 ca         1 ZVW      -0.115000
     39 C34          6.6550    -0.1780    -1.4160 ca         1 ZVW      -0.089000
     40 H1         -10.6920     2.0510    -0.2070 ha         1 ZVW       0.151000
     41 H3          -9.5400    -2.0550    -0.5600 ha         1 ZVW       0.151000
     42 H6          -8.3440     2.6690     0.2480 ha         1 ZVW       0.144500
     43 H4          -7.2110    -1.4610    -0.1100 ha         1 ZVW       0.144500
     44 H91C        -5.4610    -0.6140     1.1340 h1         1 ZVW       0.045700
     45 H92C        -5.2310    -0.3540    -0.6050 h1         1 ZVW       0.045700
     46 H101        -3.8840     1.7080    -0.1050 h1         1 ZVW       0.097700
     47 H102        -4.0930     1.4130     1.6340 h1         1 ZVW       0.097700
     48 H171         1.1790    -1.0560     1.9700 h1         1 ZVW       0.084700
     49 H172        -0.4230    -1.5890     1.5580 h1         1 ZVW       0.084700
     50 H19          2.1860    -2.8100     0.6570 ha         1 ZVW       0.148500
     51 H23         -0.3250     0.0890    -1.2640 ha         1 ZVW       0.148500
     52 H20          2.9520    -3.5990    -1.5480 ha         1 ZVW       0.155000
     53 H22          0.4410    -0.7010    -3.4510 ha         1 ZVW       0.155000
     54 H25          2.1690     0.8200     2.8720 h1         1 ZVW       0.093700
     55 H261         2.2790     3.7460     1.9970 hc         1 ZVW       0.055700
     56 H262         1.7720     3.1730     3.5870 hc         1 ZVW       0.055700
     57 H263         3.4290     2.9050     3.0440 hc         1 ZVW       0.055700
     58 H27          2.9180     1.9640     0.2560 hn         1 ZVW       0.325500
     59 H31          2.8530     0.3750    -1.5290 ha         1 ZVW       0.147000
     60 H34          7.7260    -0.3170    -1.4090 ha         1 ZVW       0.154000
     61 H32          4.1050     0.1100    -3.6220 ha         1 ZVW       0.145000
     62 H33          6.5590    -0.2640    -3.5520 ha         1 ZVW       0.144000
@<TRIPOS>BOND
     1     1     2 1   
     2     2     3 ar  
     3     2     5 ar  
     4     3     4 ar  
     5     3    40 1   
     6     4     7 ar  
     7     4    42 1   
     8     5     6 ar  
     9     5    41 1   
    10     6     7 ar  
    11     6    43 1   
    12     7     8 1   
    13     8     9 1   
    14     9    10 1   
    15     9    44 1   
    16     9    45 1   
    17    10    11 1   
    18    10    46 1   
    19    10    47 1   
    20    11    12 1   
    21    12    13 2   
    22    12    15 1   
    23    13    14 1   
    24    14    24 2   
    25    15    16 1   
    26    15    24 1   
    27    16    17 1   
    28    16    48 1   
    29    16    49 1   
    30    17    18 ar  
    31    17    23 ar  
    32    18    19 ar  
    33    18    50 1   
    34    19    20 ar  
    35    19    52 1   
    36    20    21 1   
    37    20    22 ar  
    38    22    23 ar  
    39    22    53 1   
    40    23    51 1   
    41    24    25 1   
    42    25    26 1   
    43    25    27 1   
    44    25    54 1   
    45    26    55 1   
    46    26    56 1   
    47    26    57 1   
    48    27    28 1   
    49    27    58 1   
    50    28    29 2   
    51    28    30 1   
    52    30    31 ar  
    53    30    36 ar  
    54    31    32 1   
    55    31    39 ar  
    56    32    33 1   
    57    32    34 1   
    58    32    35 1   
    59    36    37 ar  
    60    36    59 1   
    61    37    38 ar  
    62    37    61 1   
    63    38    39 ar  
    64    38    62 1   
    65    39    60 1   
@<TRIPOS>SUBSTRUCTURE
     1 ZVW         1 TEMP              0 ****  ****    0 ROOT
