@<TRIPOS>MOLECULE
ZVX
   49    51     1     0     0
SMALL
No Charge or Current Charge


@<TRIPOS>ATOM
      1 F9         -10.8620     1.2980    -0.3340 f          1 ZVX      -0.180000
      2 C6          -9.5300     1.1250    -0.1990 ca         1 ZVX       0.134000
      3 C7          -8.7690     2.0760     0.4980 ca         1 ZVX      -0.113500
      4 C8          -7.3800     1.8940     0.6380 ca         1 ZVX      -0.144500
      5 C5          -8.9120    -0.0070    -0.7560 ca         1 ZVX      -0.113500
      6 C4          -7.5230    -0.1910    -0.6170 ca         1 ZVX      -0.144500
      7 C3          -6.7520     0.7650     0.0840 ca         1 ZVX       0.126100
      8 O2          -5.3880     0.6410     0.2540 os         1 ZVX      -0.340100
      9 C1          -4.6480    -0.4750    -0.2720 c3         1 ZVX       0.168600
     10 C10         -3.1710    -0.2770     0.1080 c3         1 ZVX       0.052600
     11 S11         -2.1330    -1.6740    -0.5300 ss         1 ZVX      -0.340300
     12 C12         -0.5240    -1.2250     0.0230 cc         1 ZVX       0.482800
     13 N13         -0.2290    -0.1400     0.7050 nd         1 ZVX      -0.357000
     14 N14          1.1320    -0.1750     0.9090 nd         1 ZVX      -0.365000
     15 N16          0.5790    -1.9880    -0.2380 na         1 ZVX      -0.347000
     16 C17          0.6420    -3.2640    -0.9780 c3         1 ZVX       0.056900
     17 C15          1.6130    -1.2790     0.3400 cc         1 ZVX       0.378800
     18 C18          3.0780    -1.6870     0.3310 c3         1 ZVX       0.097400
     19 C19          3.4210    -2.6150     1.5170 c3         1 ZVX      -0.113100
     20 N20          3.9900    -0.5300     0.3050 ns         1 ZVX      -0.489900
     21 C21          5.2790    -0.5400    -0.1770 c          1 ZVX       0.635700
     22 O28          5.7480    -1.5580    -0.6640 o          1 ZVX      -0.584100
     23 C22          6.0460     0.7600    -0.1090 ca         1 ZVX      -0.246600
     24 C27          5.4030     2.0210    -0.0360 ca         1 ZVX       0.234000
     25 F30          4.0560     2.1330    -0.0530 f          1 ZVX      -0.161500
     26 C23          7.4620     0.7480    -0.1270 ca         1 ZVX       0.234000
     27 F29          8.1560    -0.4120    -0.1660 f          1 ZVX      -0.161500
     28 C24          8.2000     1.9410    -0.0670 ca         1 ZVX      -0.175500
     29 C25          7.5460     3.1770     0.0080 ca         1 ZVX      -0.042000
     30 C26          6.1460     3.2110     0.0210 ca         1 ZVX      -0.175500
     31 H7          -9.2540     2.9500     0.9270 ha         1 ZVX       0.133000
     32 H5          -9.5100    -0.7390    -1.2940 ha         1 ZVX       0.133000
     33 H8          -6.7880     2.6300     1.1770 ha         1 ZVX       0.127000
     34 H4          -7.0680    -1.0740    -1.0560 ha         1 ZVX       0.127000
     35 H11C        -5.0110    -1.4190     0.1550 h1         1 ZVX       0.045700
     36 H12C        -4.7400    -0.5230    -1.3650 h1         1 ZVX       0.045700
     37 H101        -2.8090     0.6680    -0.3170 h1         1 ZVX       0.098200
     38 H102        -3.0800    -0.2260     1.2010 h1         1 ZVX       0.098200
     39 H171         0.6860    -3.0630    -2.0560 h1         1 ZVX       0.064033
     40 H172         1.5300    -3.8360    -0.6810 h1         1 ZVX       0.064033
     41 H173        -0.2490    -3.8680    -0.7610 h1         1 ZVX       0.064033
     42 H18          3.2450    -2.2540    -0.5940 h1         1 ZVX       0.081700
     43 H191         3.2870    -2.0900     2.4710 hc         1 ZVX       0.052367
     44 H192         2.7710    -3.4980     1.5170 hc         1 ZVX       0.052367
     45 H193         4.4600    -2.9590     1.4560 hc         1 ZVX       0.052367
     46 H20          3.6500     0.3540     0.6660 hn         1 ZVX       0.350500
     47 H26          5.6280     4.1650     0.0720 ha         1 ZVX       0.141500
     48 H24          9.2860     1.9020    -0.0740 ha         1 ZVX       0.141500
     49 H25          8.1200     4.1020     0.0530 ha         1 ZVX       0.125000
@<TRIPOS>BOND
     1     1     2 1   
     2     2     3 ar  
     3     2     5 ar  
     4     3     4 ar  
     5     3    31 1   
     6     4     7 ar  
     7     4    33 1   
     8     5     6 ar  
     9     5    32 1   
    10     6     7 ar  
    11     6    34 1   
    12     7     8 1   
    13     8     9 1   
    14     9    10 1   
    15     9    35 1   
    16     9    36 1   
    17    10    11 1   
    18    10    37 1   
    19    10    38 1   
    20    11    12 1   
    21    12    13 2   
    22    12    15 1   
    23    13    14 1   
    24    14    17 2   
    25    15    16 1   
    26    15    17 1   
    27    16    39 1   
    28    16    40 1   
    29    16    41 1   
    30    17    18 1   
    31    18    19 1   
    32    18    20 1   
    33    18    42 1   
    34    19    43 1   
    35    19    44 1   
    36    19    45 1   
    37    20    21 1   
    38    20    46 1   
    39    21    22 2   
    40    21    23 1   
    41    23    24 ar  
    42    23    26 ar  
    43    24    25 1   
    44    24    30 ar  
    45    26    27 1   
    46    26    28 ar  
    47    28    29 ar  
    48    28    48 1   
    49    29    30 ar  
    50    29    49 1   
    51    30    47 1   
@<TRIPOS>SUBSTRUCTURE
     1 ZVX         1 TEMP              0 ****  ****    0 ROOT
