@<TRIPOS>MOLECULE
ZVX
   49    51     1     0     0
SMALL
bcc


@<TRIPOS>ATOM
      1 F9         -10.6110     1.2000    -0.1560 f          1 ZVX      -0.144900
      2 C6          -9.2750     1.0610    -0.0610 ca         1 ZVX       0.098900
      3 C7          -8.5270     2.0980     0.4690 ca         1 ZVX      -0.131500
      4 C8          -7.1540     1.9540     0.5640 ca         1 ZVX      -0.162500
      5 C5          -8.6850    -0.1060    -0.4920 ca         1 ZVX      -0.131500
      6 C4          -7.3040    -0.2490    -0.3950 ca         1 ZVX      -0.162500
      7 C3          -6.5330     0.7810     0.1330 ca         1 ZVX       0.126100
      8 O2          -5.1890     0.7360     0.2670 os         1 ZVX      -0.316900
      9 C1          -4.5110    -0.4390    -0.1230 c3         1 ZVX       0.145400
     10 C10         -3.0390    -0.1910     0.1540 c3         1 ZVX       0.004700
     11 S11         -2.1410    -1.7000    -0.3140 ss         1 ZVX      -0.292400
     12 C12         -0.5160    -1.1740     0.0040 cc         1 ZVX       0.482800
     13 N13         -0.1300    -0.0530     0.5400 nd         1 ZVX      -0.357000
     14 N14          1.2280    -0.0880     0.5930 nd         1 ZVX      -0.365000
     15 N16          0.5520    -1.9520    -0.3040 na         1 ZVX      -0.317700
     16 C17          0.5240    -3.2650    -0.9120 c3         1 ZVX       0.027600
     17 C15          1.6240    -1.2200     0.0940 cc         1 ZVX       0.378800
     18 C18          3.0410    -1.6880     0.0220 c3         1 ZVX       0.097400
     19 C19          3.3260    -2.7390     1.0980 c3         1 ZVX      -0.113100
     20 N20          3.8980    -0.5300     0.1580 ns         1 ZVX      -0.556900
     21 C21          5.1360    -0.4900    -0.3460 c          1 ZVX       0.702700
     22 O28          5.6630    -1.4050    -0.9530 o          1 ZVX      -0.584100
     23 C22          5.8610     0.8020    -0.1060 ca         1 ZVX      -0.246600
     24 C27          5.5230     1.9720    -0.7660 ca         1 ZVX       0.198900
     25 F30          4.4780     1.9420    -1.6010 f          1 ZVX      -0.126400
     26 C23          6.9590     0.8550     0.7380 ca         1 ZVX       0.198900
     27 F29          7.2970    -0.2620     1.3910 f          1 ZVX      -0.126400
     28 C24          7.6910     2.0060     0.9390 ca         1 ZVX      -0.193500
     29 C25          7.3140     3.1530     0.2550 ca         1 ZVX      -0.060000
     30 C26          6.2270     3.1490    -0.6070 ca         1 ZVX      -0.193500
     31 H7          -9.0060     3.0070     0.8060 ha         1 ZVX       0.151000
     32 H5          -9.2840    -0.9070    -0.9040 ha         1 ZVX       0.151000
     33 H8          -6.5560     2.7570     0.9770 ha         1 ZVX       0.145000
     34 H4          -6.8610    -1.1710    -0.7430 ha         1 ZVX       0.145000
     35 H11C        -4.8680    -1.3040     0.4480 h1         1 ZVX       0.045700
     36 H12C        -4.6680    -0.6480    -1.1870 h1         1 ZVX       0.045700
     37 H101        -2.6660     0.6440    -0.4370 h1         1 ZVX       0.098200
     38 H102        -2.8720     0.0130     1.2110 h1         1 ZVX       0.098200
     39 H171        -0.1870    -3.2770    -1.7360 h1         1 ZVX       0.064033
     40 H172         1.5050    -3.5020    -1.3130 h1         1 ZVX       0.064033
     41 H173         0.2470    -4.0230    -0.1820 h1         1 ZVX       0.064033
     42 H18          3.2230    -2.1270    -0.9630 h1         1 ZVX       0.081700
     43 H191         3.1770    -2.3170     2.0920 hc         1 ZVX       0.052367
     44 H192         2.6690    -3.6020     0.9920 hc         1 ZVX       0.052367
     45 H193         4.3530    -3.0910     1.0160 hc         1 ZVX       0.052367
     46 H20          3.5480     0.2520     0.6930 hn         1 ZVX       0.350500
     47 H26          5.9340     4.0390    -1.1480 ha         1 ZVX       0.159500
     48 H24          8.5370     2.0060     1.6140 ha         1 ZVX       0.159500
     49 H25          7.8770     4.0650     0.3950 ha         1 ZVX       0.143000
@<TRIPOS>BOND
     1     1     2 1   
     2     2     3 ar  
     3     2     5 ar  
     4     3     4 ar  
     5     3    31 1   
     6     4     7 ar  
     7     4    33 1   
     8     5     6 ar  
     9     5    32 1   
    10     6     7 ar  
    11     6    34 1   
    12     7     8 1   
    13     8     9 1   
    14     9    10 1   
    15     9    35 1   
    16     9    36 1   
    17    10    11 1   
    18    10    37 1   
    19    10    38 1   
    20    11    12 1   
    21    12    13 2   
    22    12    15 1   
    23    13    14 1   
    24    14    17 2   
    25    15    16 1   
    26    15    17 1   
    27    16    39 1   
    28    16    40 1   
    29    16    41 1   
    30    17    18 1   
    31    18    19 1   
    32    18    20 1   
    33    18    42 1   
    34    19    43 1   
    35    19    44 1   
    36    19    45 1   
    37    20    21 1   
    38    20    46 1   
    39    21    22 2   
    40    21    23 1   
    41    23    24 ar  
    42    23    26 ar  
    43    24    25 1   
    44    24    30 ar  
    45    26    27 1   
    46    26    28 ar  
    47    28    29 ar  
    48    28    48 1   
    49    29    30 ar  
    50    29    49 1   
    51    30    47 1   
@<TRIPOS>SUBSTRUCTURE
     1 ZVX         1 TEMP              0 ****  ****    0 ROOT
