@<TRIPOS>MOLECULE
ZVY
   55    58     1     0     0
SMALL
abcg2


@<TRIPOS>ATOM
      1 NAA          4.3360     4.4570    -1.2500 n1         1 ZVY      -0.488000
      2 OAB         -8.5510    -1.1760    -0.5710 o          1 ZVY      -0.708500
      3 OAC         -7.3760    -2.0820     1.1010 o          1 ZVY      -0.708500
      4 CAE          6.6420    -3.1230    -0.6410 ca         1 ZVY      -0.235000
      5 CAF          5.5220    -3.4590    -1.3970 ca         1 ZVY      -0.038000
      6 CAG          6.4500    -2.2170     0.3830 ca         1 ZVY       0.386900
      7 CAH          4.2960    -2.9020    -1.1050 ca         1 ZVY      -0.233000
      8 CAI          1.5190     2.4740    -1.8000 ca         1 ZVY      -0.074000
      9 CAJ          1.4520     3.4190     0.4250 ca         1 ZVY      -0.074000
     10 CAK         -3.8990     0.8800    -0.7820 ca         1 ZVY      -0.218000
     11 CAL          0.3230     1.8270    -1.5490 ca         1 ZVY      -0.113000
     12 CAM          0.2580     2.7670     0.6590 ca         1 ZVY      -0.113000
     13 CAN         -2.6610     1.4920    -0.9350 ca         1 ZVY      -0.060000
     14 CAO         -3.0100    -0.2990     1.1110 ca         1 ZVY      -0.169000
     15 CAP          0.5640    -1.5030     0.4410 c6         1 ZVY       0.167800
     16 CAQ          1.7390    -0.2370     2.0710 c6         1 ZVY       0.167800
     17 CAR          1.8050    -1.5890    -0.4290 c6         1 ZVY       0.214800
     18 CAS          2.9960    -0.2740     1.2260 c6         1 ZVY       0.214800
     19 CAT         -6.3410    -0.4690    -0.3260 c3         1 ZVY      -0.000400
     20 NAV          5.2790    -1.6700     0.6850 nb         1 ZVY      -0.756000
     21 OAW         -5.2190    -0.6920     0.5070 os         1 ZVY      -0.288100
     22 CAX         -7.5290    -1.3340     0.1250 c          1 ZVY       0.729000
     23 CAY          2.0930     3.2660    -0.8060 ca         1 ZVY      -0.050000
     24 CAZ         -4.0820    -0.0280     0.2570 ca         1 ZVY       0.187100
     25 CBA         -0.3130     1.9440    -0.3130 cp         1 ZVY       0.065000
     26 CBB         -1.7820     0.3210     0.9660 ca         1 ZVY      -0.039300
     27 CBC          4.1970    -2.0010    -0.0220 ca         1 ZVY       0.627900
     28 CBD         -1.5950     1.2440    -0.0780 cp         1 ZVY      -0.121000
     29 NBE          0.5710    -0.2940     1.2270 n3         1 ZVY      -0.738600
     30 NBF          3.0060    -1.4480     0.3690 nh         1 ZVY      -0.773300
     31 HAF          5.6050    -4.1520    -2.2250 ha         1 ZVY       0.108000
     32 HAG          7.2870    -1.9080     1.0020 h4         1 ZVY       0.008100
     33 HAH          3.4420    -3.1640    -1.7120 ha         1 ZVY       0.121000
     34 HAI          2.0090     2.3600    -2.7570 ha         1 ZVY       0.114500
     35 HAJ          1.8890     4.0480     1.1890 ha         1 ZVY       0.114500
     36 HAK         -4.6910     1.1210    -1.4780 ha         1 ZVY       0.127000
     37 HAL         -0.1110     1.1990    -2.3160 ha         1 ZVY       0.118500
     38 HAM         -0.2340     2.9010     1.6130 ha         1 ZVY       0.118500
     39 HAN         -2.5340     2.2020    -1.7440 ha         1 ZVY       0.100000
     40 HAO         -3.1470    -1.0310     1.8990 ha         1 ZVY       0.129000
     41 HAP         -0.3100    -1.5090    -0.2130 h1         1 ZVY       0.041450
     42 HAPA         0.5020    -2.4050     1.0760 h1         1 ZVY       0.041450
     43 HAQ          1.7660    -1.0610     2.8060 h1         1 ZVY       0.041450
     44 HAQA         1.7310     0.6990     2.6340 h1         1 ZVY       0.041450
     45 HAR          1.7890    -2.5570    -0.9250 h1         1 ZVY       0.053450
     46 HARA         1.7630    -0.8150    -1.2070 h1         1 ZVY       0.053450
     47 HAS          3.0420     0.6400     0.6170 h1         1 ZVY       0.053450
     48 HASA         3.8700    -0.2900     1.8690 h1         1 ZVY       0.053450
     49 HAT         -6.6380     0.5870    -0.2990 h1         1 ZVY       0.019200
     50 HATA        -6.0990    -0.7060    -1.3700 h1         1 ZVY       0.019200
     51 CAU         -0.6680    -0.0460     1.9190 c3         1 ZVY       0.226100
     52 HAE          7.6180    -3.5400    -0.8440 ha         1 ZVY       0.117000
     53 HAU         -0.5060     0.7740     2.6240 h1         1 ZVY       0.036700
     54 HAUA        -0.9930    -0.9040     2.5300 h1         1 ZVY       0.036700
     55 CAD          3.3320     3.9250    -1.0510 cg         1 ZVY       0.340000
@<TRIPOS>BOND
     1     1    55 3   
     2     2    22 1   
     3     3    22 1   
     4     4     5 ar  
     5     4     6 ar  
     6     4    52 1   
     7     5     7 ar  
     8     5    31 1   
     9     6    20 ar  
    10     6    32 1   
    11     7    27 ar  
    12     7    33 1   
    13     8    11 ar  
    14     8    23 ar  
    15     8    34 1   
    16     9    12 ar  
    17     9    23 ar  
    18     9    35 1   
    19    10    13 ar  
    20    10    24 ar  
    21    10    36 1   
    22    11    25 ar  
    23    11    37 1   
    24    12    25 ar  
    25    12    38 1   
    26    13    28 ar  
    27    13    39 1   
    28    14    24 ar  
    29    14    26 ar  
    30    14    40 1   
    31    15    17 1   
    32    15    29 1   
    33    15    41 1   
    34    15    42 1   
    35    16    18 1   
    36    16    29 1   
    37    16    43 1   
    38    16    44 1   
    39    17    30 1   
    40    17    45 1   
    41    17    46 1   
    42    18    30 1   
    43    18    47 1   
    44    18    48 1   
    45    19    21 1   
    46    19    22 1   
    47    19    49 1   
    48    19    50 1   
    49    20    27 ar  
    50    21    24 1   
    51    23    55 1   
    52    25    28 1   
    53    26    28 ar  
    54    26    51 1   
    55    27    30 1   
    56    29    51 1   
    57    51    53 1   
    58    51    54 1   
@<TRIPOS>SUBSTRUCTURE
     1 ZVY         1 TEMP              0 ****  ****    0 ROOT
