@<TRIPOS>MOLECULE
ZVY
   55    58     1     0     0
SMALL
No Charge or Current Charge


@<TRIPOS>ATOM
      1 NAA          3.9950     5.3020    -1.3610 n1         1 ZVY      -0.488000
      2 OAB         -8.4790    -1.7500    -0.4790 o          1 ZVY      -0.708500
      3 OAC         -7.2470    -2.4750     1.1300 o          1 ZVY      -0.708500
      4 CAE          6.5910    -3.7520    -0.5800 ca         1 ZVY      -0.235000
      5 CAF          5.6300    -3.5900    -1.5850 ca         1 ZVY      -0.038000
      6 CAG          6.3360    -3.2390     0.7000 ca         1 ZVY       0.386900
      7 CAH          4.4470    -2.9150    -1.2540 ca         1 ZVY      -0.233000
      8 CAI          1.3820     2.9840    -1.8740 ca         1 ZVY      -0.074000
      9 CAJ          1.1870     3.9940     0.3320 ca         1 ZVY      -0.074000
     10 CAK         -3.9460     0.8520    -0.7870 ca         1 ZVY      -0.218000
     11 CAL          0.2310     2.2170    -1.6200 ca         1 ZVY      -0.113000
     12 CAM          0.0380     3.2240     0.5800 ca         1 ZVY      -0.113000
     13 CAN         -2.7860     1.6160    -0.9830 ca         1 ZVY      -0.060000
     14 CAO         -2.8980    -0.2250     1.1200 ca         1 ZVY      -0.169000
     15 CAP          0.5740    -1.3980     0.4210 c6         1 ZVY       0.167800
     16 CAQ          1.8830    -0.1980     2.0960 c6         1 ZVY       0.167800
     17 CAR          1.8700    -1.7590    -0.3750 c6         1 ZVY       0.214800
     18 CAS          3.2110    -0.5290     1.3410 c6         1 ZVY       0.214800
     19 CAT         -6.3100    -0.7780    -0.3030 c3         1 ZVY      -0.000400
     20 NAV          5.1970    -2.5880     1.0190 nb         1 ZVY      -0.756000
     21 OAW         -5.1170    -0.8560     0.5150 os         1 ZVY      -0.288100
     22 CAX         -7.4340    -1.7510     0.1590 c          1 ZVY       0.729000
     23 CAY          1.8660     3.8740    -0.8960 ca         1 ZVY      -0.050000
     24 CAZ         -4.0050    -0.0740     0.2720 ca         1 ZVY       0.187100
     25 CBA         -0.4530     2.3150    -0.3860 cp         1 ZVY       0.065000
     26 CBB         -1.7260     0.5370     0.9370 ca         1 ZVY      -0.039300
     27 CBC          4.2690    -2.4300     0.0580 ca         1 ZVY       0.627900
     28 CBD         -1.6660     1.4840    -0.1280 cp         1 ZVY      -0.121000
     29 NBE          0.7050    -0.1210     1.1840 n3         1 ZVY      -0.738600
     30 NBF          3.1070    -1.7510     0.4720 nh         1 ZVY      -0.773300
     31 HAF          5.7960    -3.9730    -2.5900 ha         1 ZVY       0.108000
     32 HAG          7.0690    -3.3520     1.4990 h4         1 ZVY       0.008100
     33 HAH          3.6890    -2.7660    -2.0140 ha         1 ZVY       0.121000
     34 HAI          1.8950     2.8830    -2.8280 ha         1 ZVY       0.114500
     35 HAJ          1.5470     4.6830     1.0940 ha         1 ZVY       0.114500
     36 HAK         -4.7840     0.9900    -1.4640 ha         1 ZVY       0.127000
     37 HAL         -0.1300     1.5270    -2.3780 ha         1 ZVY       0.118500
     38 HAM         -0.4820     3.3310     1.5280 ha         1 ZVY       0.118500
     39 HAN         -2.7510     2.3290    -1.8040 ha         1 ZVY       0.100000
     40 HAO         -2.9530    -0.9520     1.9260 ha         1 ZVY       0.129000
     41 HAP         -0.2590    -1.3370    -0.2930 h1         1 ZVY       0.041450
     42 HAPA         0.3450    -2.2250     1.1100 h1         1 ZVY       0.041450
     43 HAQ          1.7150    -0.9690     2.8620 h1         1 ZVY       0.041450
     44 HAQA         2.0150     0.7560     2.6270 h1         1 ZVY       0.041450
     45 HAR          1.7180    -2.7520    -0.8220 h1         1 ZVY       0.053450
     46 HARA         1.9820    -1.0400    -1.2000 h1         1 ZVY       0.053450
     47 HAS          3.4810     0.3380     0.7210 h1         1 ZVY       0.053450
     48 HASA         3.9990    -0.6400     2.0990 h1         1 ZVY       0.053450
     49 HAT         -6.7200     0.2390    -0.2760 h1         1 ZVY       0.019200
     50 HATA        -6.0690    -1.0230    -1.3460 h1         1 ZVY       0.019200
     51 CAU         -0.5400     0.2860     1.8790 c3         1 ZVY       0.226100
     52 HAE          7.5260    -4.2680    -0.7830 ha         1 ZVY       0.117000
     53 HAU         -0.3620     1.2040     2.4540 h1         1 ZVY       0.036700
     54 HAUA        -0.8180    -0.4850     2.6110 h1         1 ZVY       0.036700
     55 CAD          3.0430     4.6570    -1.1510 cg         1 ZVY       0.340000
@<TRIPOS>BOND
     1     1    55 3   
     2     2    22 1   
     3     3    22 1   
     4     4     5 ar  
     5     4     6 ar  
     6     4    52 1   
     7     5     7 ar  
     8     5    31 1   
     9     6    20 ar  
    10     6    32 1   
    11     7    27 ar  
    12     7    33 1   
    13     8    11 ar  
    14     8    23 ar  
    15     8    34 1   
    16     9    12 ar  
    17     9    23 ar  
    18     9    35 1   
    19    10    13 ar  
    20    10    24 ar  
    21    10    36 1   
    22    11    25 ar  
    23    11    37 1   
    24    12    25 ar  
    25    12    38 1   
    26    13    28 ar  
    27    13    39 1   
    28    14    24 ar  
    29    14    26 ar  
    30    14    40 1   
    31    15    17 1   
    32    15    29 1   
    33    15    41 1   
    34    15    42 1   
    35    16    18 1   
    36    16    29 1   
    37    16    43 1   
    38    16    44 1   
    39    17    30 1   
    40    17    45 1   
    41    17    46 1   
    42    18    30 1   
    43    18    47 1   
    44    18    48 1   
    45    19    21 1   
    46    19    22 1   
    47    19    49 1   
    48    19    50 1   
    49    20    27 ar  
    50    21    24 1   
    51    23    55 1   
    52    25    28 1   
    53    26    28 ar  
    54    26    51 1   
    55    27    30 1   
    56    29    51 1   
    57    51    53 1   
    58    51    54 1   
@<TRIPOS>SUBSTRUCTURE
     1 ZVY         1 TEMP              0 ****  ****    0 ROOT
