@<TRIPOS>MOLECULE
ZVZ
   60    63     1     0     0
SMALL
No Charge or Current Charge


@<TRIPOS>ATOM
      1 OAC          7.0860     2.0090     1.0990 o          1 ZVZ      -0.565100
      2 CAY          7.1600     1.2420     0.1460 c          1 ZVZ       0.598100
      3 NAW          8.3160     1.1330    -0.6030 ns         1 ZVZ      -0.513900
      4 CAA          9.5400     1.8970    -0.3490 c3         1 ZVZ       0.096300
      5 CAT          6.0000     0.3300    -0.3180 c3         1 ZVZ       0.076600
      6 OAX          4.8170     0.4850     0.5000 os         1 ZVZ      -0.311100
      7 CBA          3.6610    -0.2320     0.2670 ca         1 ZVZ       0.146100
      8 CAK          3.5460    -1.1630    -0.7830 ca         1 ZVZ      -0.201000
      9 CAN          2.3410    -1.8600    -0.9690 ca         1 ZVZ      -0.065000
     10 CAO          2.5670    -0.0070     1.1150 ca         1 ZVZ      -0.141000
     11 CBC          1.3510    -0.7010     0.9410 ca         1 ZVZ      -0.033300
     12 CBE          1.2330    -1.6530    -0.1140 cp         1 ZVZ      -0.064000
     13 CBB         -0.0280    -2.4130    -0.3620 cp         1 ZVZ       0.030000
     14 CAM         -0.7120    -2.2800    -1.5930 ca         1 ZVZ      -0.105500
     15 CAJ         -1.9070    -2.9790    -1.8360 ca         1 ZVZ      -0.072000
     16 CAZ         -2.4380    -3.8340    -0.8500 ca         1 ZVZ      -0.026000
     17 CAD         -3.6620    -4.5460    -1.0940 cg         1 ZVZ       0.326000
     18 NAB         -4.6520    -5.1330    -1.2960 n1         1 ZVZ      -0.457000
     19 CAI         -1.7610    -3.9880     0.3740 ca         1 ZVZ      -0.072000
     20 CAL         -0.5660    -3.2860     0.6130 ca         1 ZVZ      -0.105500
     21 CAU          0.1850    -0.3720     1.8810 c3         1 ZVZ       0.224100
     22 NBF         -1.0310     0.1100     1.1810 n3         1 ZVZ      -0.738600
     23 CAP         -2.2050     0.2570     2.0870 c6         1 ZVZ       0.166800
     24 CAR         -3.5080     0.6660     1.3270 c6         1 ZVZ       0.217300
     25 NBG         -3.3290     1.8790     0.4570 nh         1 ZVZ      -0.776300
     26 CAS         -2.0890     1.8140    -0.3840 c6         1 ZVZ       0.217300
     27 CAQ         -0.8210     1.3760     0.4180 c6         1 ZVZ       0.166800
     28 CBD         -4.4430     2.6290     0.0370 ca         1 ZVZ       0.621900
     29 NAV         -5.3670     2.8400     0.9920 nb         1 ZVZ      -0.752000
     30 CAG         -6.4620     3.5600     0.6690 ca         1 ZVZ       0.387900
     31 CAE         -6.6770     4.0930    -0.6110 ca         1 ZVZ      -0.224000
     32 CAF         -5.7200     3.8770    -1.6100 ca         1 ZVZ      -0.037000
     33 CAH         -4.5820     3.1300    -1.2740 ca         1 ZVZ      -0.233000
     34 HAW          8.3040     0.4770    -1.3770 hn         1 ZVZ       0.314500
     35 HAT1         5.7820     0.5800    -1.3640 h1         1 ZVZ       0.048200
     36 HAT2         6.3600    -0.7060    -0.2830 h1         1 ZVZ       0.048200
     37 HAA1         9.3290     2.9710    -0.4310 h1         1 ZVZ       0.043033
     38 HAA2         9.9130     1.6740     0.6590 h1         1 ZVZ       0.043033
     39 HAA3        10.3050     1.6220    -1.0860 h1         1 ZVZ       0.043033
     40 HAK          4.3710    -1.3590    -1.4620 ha         1 ZVZ       0.116000
     41 HAO          2.6660     0.7240     1.9140 ha         1 ZVZ       0.134000
     42 HAN          2.2610    -2.5770    -1.7830 ha         1 ZVZ       0.116000
     43 HAU1        -0.0520    -1.2740     2.4580 h1         1 ZVZ       0.042700
     44 HAU2         0.5100     0.3820     2.6100 h1         1 ZVZ       0.042700
     45 HAM         -0.3160    -1.6160    -2.3570 ha         1 ZVZ       0.117000
     46 HAL         -0.0490    -3.4200     1.5590 ha         1 ZVZ       0.117000
     47 HAJ         -2.4200    -2.8530    -2.7870 ha         1 ZVZ       0.123000
     48 HAI         -2.1570    -4.6500     1.1420 ha         1 ZVZ       0.123000
     49 HAP1        -2.3970    -0.6870     2.6180 h1         1 ZVZ       0.040950
     50 HAP2        -1.9960     1.0180     2.8540 h1         1 ZVZ       0.040950
     51 HAQ1        -0.5460     2.1880     1.1070 h1         1 ZVZ       0.040950
     52 HAQ2         0.0110     1.2660    -0.2930 h1         1 ZVZ       0.040950
     53 HAR1        -3.8280    -0.1840     0.7060 h1         1 ZVZ       0.054450
     54 HAR2        -4.2920     0.8250     2.0810 h1         1 ZVZ       0.054450
     55 HAS1        -2.2400     1.1030    -1.2110 h1         1 ZVZ       0.054450
     56 HAS2        -1.8760     2.7960    -0.8300 h1         1 ZVZ       0.054450
     57 HAH         -3.8300     2.9380    -2.0300 ha         1 ZVZ       0.119000
     58 HAG         -7.1930     3.7140     1.4630 h4         1 ZVZ       0.014100
     59 HAE         -7.5780     4.6650    -0.8170 ha         1 ZVZ       0.123000
     60 HAF         -5.8560     4.2730    -2.6150 ha         1 ZVZ       0.112000
@<TRIPOS>BOND
     1     1     2 2   
     2     2     3 1   
     3     2     5 1   
     4     3     4 1   
     5     3    34 1   
     6     4    37 1   
     7     4    38 1   
     8     4    39 1   
     9     5     6 1   
    10     5    35 1   
    11     5    36 1   
    12     6     7 1   
    13     7     8 ar  
    14     7    10 ar  
    15     8     9 ar  
    16     8    40 1   
    17     9    12 ar  
    18     9    42 1   
    19    10    11 ar  
    20    10    41 1   
    21    11    12 ar  
    22    11    21 1   
    23    12    13 1   
    24    13    14 ar  
    25    13    20 ar  
    26    14    15 ar  
    27    14    45 1   
    28    15    16 ar  
    29    15    47 1   
    30    16    17 1   
    31    16    19 ar  
    32    17    18 3   
    33    19    20 ar  
    34    19    48 1   
    35    20    46 1   
    36    21    22 1   
    37    21    43 1   
    38    21    44 1   
    39    22    23 1   
    40    22    27 1   
    41    23    24 1   
    42    23    49 1   
    43    23    50 1   
    44    24    25 1   
    45    24    53 1   
    46    24    54 1   
    47    25    26 1   
    48    25    28 1   
    49    26    27 1   
    50    26    55 1   
    51    26    56 1   
    52    27    51 1   
    53    27    52 1   
    54    28    29 ar  
    55    28    33 ar  
    56    29    30 ar  
    57    30    31 ar  
    58    30    58 1   
    59    31    32 ar  
    60    31    59 1   
    61    32    33 ar  
    62    32    60 1   
    63    33    57 1   
@<TRIPOS>SUBSTRUCTURE
     1 ZVZ         1 TEMP              0 ****  ****    0 ROOT
