@<TRIPOS>MOLECULE
ZVZ
   60    63     1     0     0
SMALL
abcg2


@<TRIPOS>ATOM
      1 OAC          6.8470     2.1650     0.6010 o          1 ZVZ      -0.565100
      2 CAY          7.0660     1.1500    -0.0380 c          1 ZVZ       0.598100
      3 NAW          8.2780     0.8050    -0.4870 ns         1 ZVZ      -0.513900
      4 CAA          9.4420     1.6360    -0.2860 c3         1 ZVZ       0.096300
      5 CAT          5.9580     0.1890    -0.4380 c3         1 ZVZ       0.076600
      6 OAX          4.9010     0.3710     0.4660 os         1 ZVZ      -0.311100
      7 CBA          3.7290    -0.2480     0.2250 ca         1 ZVZ       0.146100
      8 CAK          3.5000    -1.1370    -0.8170 ca         1 ZVZ      -0.201000
      9 CAN          2.2360    -1.6960    -0.9600 ca         1 ZVZ      -0.065000
     10 CAO          2.6860     0.0630     1.0990 ca         1 ZVZ      -0.141000
     11 CBC          1.4310    -0.5020     0.9610 ca         1 ZVZ      -0.033300
     12 CBE          1.1940    -1.4060    -0.0880 cp         1 ZVZ      -0.064000
     13 CBB         -0.1220    -2.0470    -0.3080 cp         1 ZVZ       0.030000
     14 CAM         -0.7730    -1.8940    -1.5320 ca         1 ZVZ      -0.105500
     15 CAJ         -1.9990    -2.4870    -1.7670 ca         1 ZVZ      -0.072000
     16 CAZ         -2.5900    -3.2610    -0.7680 ca         1 ZVZ      -0.026000
     17 CAD         -3.8600    -3.8670    -0.9970 cg         1 ZVZ       0.326000
     18 NAB         -4.8880    -4.3540    -1.1820 n1         1 ZVZ      -0.457000
     19 CAI         -1.9370    -3.4490     0.4510 ca         1 ZVZ      -0.072000
     20 CAL         -0.7110    -2.8510     0.6680 ca         1 ZVZ      -0.105500
     21 CAU          0.3390    -0.0920     1.9210 c3         1 ZVZ       0.224100
     22 NBF         -0.8730     0.2560     1.2230 n3         1 ZVZ      -0.738600
     23 CAP         -2.0570     0.2280     2.0460 c6         1 ZVZ       0.166800
     24 CAR         -3.2940     0.3790     1.1840 c6         1 ZVZ       0.217300
     25 NBG         -3.2210     1.5910     0.3850 nh         1 ZVZ      -0.776300
     26 CAS         -1.9990     1.7000    -0.3860 c6         1 ZVZ       0.217300
     27 CAQ         -0.7810     1.4980     0.4970 c6         1 ZVZ       0.166800
     28 CBD         -4.3730     2.2180    -0.0150 ca         1 ZVZ       0.621900
     29 NAV         -5.4860     1.9260     0.6610 nb         1 ZVZ      -0.752000
     30 CAG         -6.6200     2.5410     0.3510 ca         1 ZVZ       0.387900
     31 CAE         -6.7410     3.4840    -0.6520 ca         1 ZVZ      -0.224000
     32 CAF         -5.5900     3.7800    -1.3750 ca         1 ZVZ      -0.037000
     33 CAH         -4.4010     3.1510    -1.0730 ca         1 ZVZ      -0.233000
     34 HAW          8.3940    -0.0650    -0.9790 hn         1 ZVZ       0.314500
     35 HAT1         5.6520     0.4250    -1.4650 h1         1 ZVZ       0.048200
     36 HAT2         6.3200    -0.8460    -0.4350 h1         1 ZVZ       0.048200
     37 HAA1         9.2920     2.6380    -0.6910 h1         1 ZVZ       0.043033
     38 HAA2         9.6950     1.7270     0.7710 h1         1 ZVZ       0.043033
     39 HAA3        10.2810     1.1810    -0.8020 h1         1 ZVZ       0.043033
     40 HAK          4.2750    -1.4090    -1.5210 ha         1 ZVZ       0.116000
     41 HAO          2.8640     0.7830     1.8900 ha         1 ZVZ       0.134000
     42 HAN          2.0690    -2.3930    -1.7710 ha         1 ZVZ       0.116000
     43 HAU1         0.1200    -0.9180     2.6020 h1         1 ZVZ       0.042700
     44 HAU2         0.7140     0.7270     2.5570 h1         1 ZVZ       0.042700
     45 HAM         -0.3250    -1.2800    -2.3030 ha         1 ZVZ       0.117000
     46 HAL         -0.2080    -3.0180     1.6120 ha         1 ZVZ       0.117000
     47 HAJ         -2.4980    -2.3490    -2.7160 ha         1 ZVZ       0.123000
     48 HAI         -2.3860    -4.0660     1.2180 ha         1 ZVZ       0.123000
     49 HAP1        -2.1130    -0.7340     2.5610 h1         1 ZVZ       0.040950
     50 HAP2        -2.0480     1.0140     2.8210 h1         1 ZVZ       0.040950
     51 HAQ1        -0.6780     2.3620     1.1780 h1         1 ZVZ       0.040950
     52 HAQ2         0.1030     1.4830    -0.1430 h1         1 ZVZ       0.040950
     53 HAR1        -3.3830    -0.5000     0.5300 h1         1 ZVZ       0.054450
     54 HAR2        -4.1770     0.4160     1.8150 h1         1 ZVZ       0.054450
     55 HAS1        -1.9870     0.9650    -1.2020 h1         1 ZVZ       0.054450
     56 HAS2        -1.9190     2.6890    -0.8320 h1         1 ZVZ       0.054450
     57 HAH         -3.5220     3.3820    -1.6560 ha         1 ZVZ       0.119000
     58 HAG         -7.4850     2.2600     0.9430 h4         1 ZVZ       0.014100
     59 HAE         -7.6900     3.9580    -0.8620 ha         1 ZVZ       0.123000
     60 HAF         -5.6180     4.4980    -2.1850 ha         1 ZVZ       0.112000
@<TRIPOS>BOND
     1     1     2 2   
     2     2     3 1   
     3     2     5 1   
     4     3     4 1   
     5     3    34 1   
     6     4    37 1   
     7     4    38 1   
     8     4    39 1   
     9     5     6 1   
    10     5    35 1   
    11     5    36 1   
    12     6     7 1   
    13     7     8 ar  
    14     7    10 ar  
    15     8     9 ar  
    16     8    40 1   
    17     9    12 ar  
    18     9    42 1   
    19    10    11 ar  
    20    10    41 1   
    21    11    12 ar  
    22    11    21 1   
    23    12    13 1   
    24    13    14 ar  
    25    13    20 ar  
    26    14    15 ar  
    27    14    45 1   
    28    15    16 ar  
    29    15    47 1   
    30    16    17 1   
    31    16    19 ar  
    32    17    18 3   
    33    19    20 ar  
    34    19    48 1   
    35    20    46 1   
    36    21    22 1   
    37    21    43 1   
    38    21    44 1   
    39    22    23 1   
    40    22    27 1   
    41    23    24 1   
    42    23    49 1   
    43    23    50 1   
    44    24    25 1   
    45    24    53 1   
    46    24    54 1   
    47    25    26 1   
    48    25    28 1   
    49    26    27 1   
    50    26    55 1   
    51    26    56 1   
    52    27    51 1   
    53    27    52 1   
    54    28    29 ar  
    55    28    33 ar  
    56    29    30 ar  
    57    30    31 ar  
    58    30    58 1   
    59    31    32 ar  
    60    31    59 1   
    61    32    33 ar  
    62    32    60 1   
    63    33    57 1   
@<TRIPOS>SUBSTRUCTURE
     1 ZVZ         1 TEMP              0 ****  ****    0 ROOT
