@<TRIPOS>MOLECULE
ZW0
   64    66     1     0     0
SMALL
No Charge or Current Charge


@<TRIPOS>ATOM
      1 C1          -4.0510   -23.6320    13.9040 c3         1 ZW0      -0.341400
      2 O1          -5.8660   -21.8060    14.1190 o          1 ZW0      -0.714533
      3 C2          -3.7020   -25.0980    13.5270 c3         1 ZW0      -0.033400
      4 C21         -0.5280   -30.1650    18.7400 ca         1 ZW0      -0.160000
      5 C3          -2.1950   -25.4390    13.6640 c3         1 ZW0       0.197800
      6 O3          -6.0600   -23.4400    12.2750 o          1 ZW0      -0.714533
      7 C10          2.2130   -20.9550    16.8300 ca         1 ZW0       0.336800
      8 C11         -0.4110   -27.4320    19.0780 ca         1 ZW0       0.336800
      9 C01         -0.3150   -22.7670    16.8840 c3         1 ZW0       0.201300
     10 C03         -0.3070   -23.6420    18.1850 c3         1 ZW0       0.201300
     11 C04          0.5480   -23.7710    14.7360 c3         1 ZW0       0.205300
     12 C05         -0.0910   -25.1750    14.9520 c3         1 ZW0       0.189300
     13 C07         -2.1450   -25.9930    16.1240 c3         1 ZW0       0.189300
     14 C08         -2.0440   -25.3250    17.5320 c3         1 ZW0       0.205300
     15 C13          1.5760   -19.8260    17.3820 ca         1 ZW0      -0.208500
     16 C14          2.1690   -19.1580    18.4610 ca         1 ZW0      -0.127000
     17 C15          3.3920   -19.6410    18.9480 ca         1 ZW0      -0.160000
     18 C16          3.9990   -20.7750    18.3520 ca         1 ZW0       0.291500
     19 C18          5.3600   -21.2970    18.8930 c          1 ZW0       0.608000
     20 C19         -1.5470   -28.1350    19.5280 ca         1 ZW0      -0.208500
     21 C20         -1.6120   -29.5230    19.3560 ca         1 ZW0      -0.127000
     22 C22          0.5970   -29.4150    18.3120 ca         1 ZW0       0.291500
     23 C24          1.7960   -30.1390    17.6390 c          1 ZW0       0.608000
     24 C29         -0.3170   -25.9020    19.2550 c3         1 ZW0       0.151000
     25 N02          0.8500   -22.9660    15.9590 n3         1 ZW0      -0.721600
     26 N06         -1.5880   -25.1850    14.9960 n3         1 ZW0      -0.759600
     27 N09         -0.6640   -25.0860    18.0530 n3         1 ZW0      -0.721600
     28 N17          3.4010   -21.4130    17.2980 nb         1 ZW0      -0.579500
     29 N23          0.6390   -28.0590    18.4910 nb         1 ZW0      -0.579500
     30 O25          1.7390   -31.3530    17.4690 o          1 ZW0      -0.704500
     31 O26          2.7800   -29.4890    17.2930 o          1 ZW0      -0.704500
     32 O27          5.8960   -22.2620    18.3540 o          1 ZW0      -0.704500
     33 O28          5.8760   -20.7280    19.8500 o          1 ZW0      -0.704500
     34 S1          -5.7990   -23.2150    13.7050 s6         1 ZW0       1.322600
     35 H11         -3.4940   -22.9330    13.2720 h1         1 ZW0       0.074200
     36 H12         -3.8080   -23.4400    14.9530 h1         1 ZW0       0.074200
     37 H2          -4.2970   -25.7900    14.1330 hc         1 ZW0       0.034200
     38 H21         -3.9930   -25.2800    12.4860 hc         1 ZW0       0.034200
     39 H32         -2.0510   -26.4930    13.3910 h1         1 ZW0       0.002200
     40 H31         -1.6610   -24.8430    12.9110 h1         1 ZW0       0.002200
     41 H011        -0.3320   -21.7260    17.2290 h1         1 ZW0       0.025200
     42 H012        -1.2640   -22.8990    16.3500 h1         1 ZW0       0.025200
     43 H031         0.6930   -23.5510    18.6290 h1         1 ZW0       0.025200
     44 H032        -1.0020   -23.1770    18.8970 h1         1 ZW0       0.025200
     45 H042         1.4920   -23.9370    14.2000 h1         1 ZW0       0.011950
     46 H041        -0.0950   -23.1930    14.0570 h1         1 ZW0       0.011950
     47 H051         0.3550   -25.6210    15.8490 h1         1 ZW0       0.047450
     48 H052         0.2440   -25.8170    14.1250 h1         1 ZW0       0.047450
     49 H071        -3.2110   -26.1870    15.9630 h1         1 ZW0       0.047450
     50 H072        -1.6560   -26.9760    16.1640 h1         1 ZW0       0.047450
     51 H081        -2.5990   -24.3780    17.4910 h1         1 ZW0       0.011950
     52 H082        -2.6050   -25.9550    18.2340 h1         1 ZW0       0.011950
     53 H131         0.6310   -19.4770    16.9770 ha         1 ZW0       0.083000
     54 H141         1.6950   -18.2860    18.9070 ha         1 ZW0       0.069000
     55 H151         3.8720   -19.1390    19.7840 ha         1 ZW0       0.118500
     56 H191        -2.3670   -27.6040    20.0030 ha         1 ZW0       0.083000
     57 H201        -2.4790   -30.0880    19.6910 ha         1 ZW0       0.069000
     58 H291         0.7110   -25.6690    19.5650 h1         1 ZW0       0.025950
     59 H292        -0.9640   -25.6090    20.0920 h1         1 ZW0       0.025950
     60 O2          -6.4950   -24.1460    14.6060 o          1 ZW0      -0.714533
     61 C30          1.5850   -21.7040    15.6360 c3         1 ZW0       0.151000
     62 H211        -0.5550   -31.2420    18.5960 ha         1 ZW0       0.118500
     63 H301         2.3960   -21.9300    14.9300 h1         1 ZW0       0.025950
     64 H302         0.9090   -21.0150    15.1120 h1         1 ZW0       0.025950
@<TRIPOS>BOND
     1     1     3 1   
     2     1    34 1   
     3     1    35 1   
     4     1    36 1   
     5     2    34 1   
     6     3     5 1   
     7     3    37 1   
     8     3    38 1   
     9     4    21 ar  
    10     4    22 ar  
    11     4    62 1   
    12     5    26 1   
    13     5    39 1   
    14     5    40 1   
    15     6    34 1   
    16     7    15 ar  
    17     7    28 ar  
    18     7    61 1   
    19     8    20 ar  
    20     8    24 1   
    21     8    29 ar  
    22     9    10 1   
    23     9    25 1   
    24     9    41 1   
    25     9    42 1   
    26    10    27 1   
    27    10    43 1   
    28    10    44 1   
    29    11    12 1   
    30    11    25 1   
    31    11    45 1   
    32    11    46 1   
    33    12    26 1   
    34    12    47 1   
    35    12    48 1   
    36    13    14 1   
    37    13    26 1   
    38    13    49 1   
    39    13    50 1   
    40    14    27 1   
    41    14    51 1   
    42    14    52 1   
    43    15    16 ar  
    44    15    53 1   
    45    16    17 ar  
    46    16    54 1   
    47    17    18 ar  
    48    17    55 1   
    49    18    19 1   
    50    18    28 ar  
    51    19    32 1   
    52    19    33 1   
    53    20    21 ar  
    54    20    56 1   
    55    21    57 1   
    56    22    23 1   
    57    22    29 ar  
    58    23    30 1   
    59    23    31 1   
    60    24    27 1   
    61    24    58 1   
    62    24    59 1   
    63    25    61 1   
    64    34    60 1   
    65    61    63 1   
    66    61    64 1   
@<TRIPOS>SUBSTRUCTURE
     1 ZW0         1 TEMP              0 ****  ****    0 ROOT
