@<TRIPOS>MOLECULE
ZW0
   64    66     1     0     0
SMALL
abcg2


@<TRIPOS>ATOM
      1 C1          -3.9090   -23.6460    14.0970 c3         1 ZW0      -0.341400
      2 O1          -5.5010   -21.5850    14.2920 o          1 ZW0      -0.714533
      3 C2          -3.7960   -25.1350    13.8200 c3         1 ZW0      -0.033400
      4 C21          0.5150   -29.2580    18.7090 ca         1 ZW0      -0.160000
      5 C3          -2.3520   -25.6260    13.8160 c3         1 ZW0       0.197800
      6 O3          -6.1120   -23.3630    12.6970 o          1 ZW0      -0.714533
      7 C10          2.1360   -21.6430    16.8610 ca         1 ZW0       0.336800
      8 C11         -0.0940   -26.6200    18.9910 ca         1 ZW0       0.336800
      9 C01         -0.6030   -22.6830    16.3140 c3         1 ZW0       0.201300
     10 C03         -0.7900   -23.1600    17.7510 c3         1 ZW0       0.201300
     11 C04          0.4300   -24.0150    14.5270 c3         1 ZW0       0.205300
     12 C05         -0.1830   -25.3760    14.8440 c3         1 ZW0       0.189300
     13 C07         -2.0950   -26.0540    16.2120 c3         1 ZW0       0.189300
     14 C08         -2.1690   -25.1490    17.4380 c3         1 ZW0       0.205300
     15 C13          2.0870   -20.2860    17.1570 ca         1 ZW0      -0.208500
     16 C14          2.5780   -19.8540    18.3810 ca         1 ZW0      -0.127000
     17 C15          3.0900   -20.7890    19.2630 ca         1 ZW0      -0.160000
     18 C16          3.0870   -22.1340    18.8960 ca         1 ZW0       0.291500
     19 C18          3.6110   -23.2000    19.8690 c          1 ZW0       0.608000
     20 C19         -0.8020   -27.5540    19.7370 ca         1 ZW0      -0.208500
     21 C20         -0.4880   -28.8980    19.5920 ca         1 ZW0      -0.127000
     22 C22          1.1720   -28.2590    17.9910 ca         1 ZW0       0.291500
     23 C24          2.2700   -28.6310    16.9840 c          1 ZW0       0.608000
     24 C29         -0.3940   -25.1450    19.1010 c3         1 ZW0       0.151000
     25 N02          0.6180   -23.1820    15.6990 n3         1 ZW0      -0.721600
     26 N06         -1.6250   -25.3490    15.0370 n3         1 ZW0      -0.759600
     27 N09         -0.8890   -24.6000    17.8570 n3         1 ZW0      -0.721600
     28 N17          2.6260   -22.5350    17.7170 nb         1 ZW0      -0.579500
     29 N23          0.8690   -26.9750    18.1450 nb         1 ZW0      -0.579500
     30 O25          2.6400   -29.8200    17.0140 o          1 ZW0      -0.704500
     31 O26          2.6780   -27.7290    16.2340 o          1 ZW0      -0.704500
     32 O27          3.3930   -24.3870    19.5720 o          1 ZW0      -0.704500
     33 O28          4.2000   -22.7650    20.8760 o          1 ZW0      -0.704500
     34 S1          -5.6040   -23.0380    14.0470 s6         1 ZW0       1.322600
     35 H11         -3.3350   -23.0720    13.3650 h1         1 ZW0       0.074200
     36 H12         -3.5140   -23.4040    15.0840 h1         1 ZW0       0.074200
     37 H2          -4.3910   -25.6900    14.5480 hc         1 ZW0       0.034200
     38 H21         -4.2240   -25.3610    12.8400 hc         1 ZW0       0.034200
     39 H32         -2.3440   -26.7000    13.5600 h1         1 ZW0       0.002200
     40 H31         -1.8290   -25.1200    12.9990 h1         1 ZW0       0.002200
     41 H011        -0.6140   -21.5850    16.3200 h1         1 ZW0       0.025200
     42 H012        -1.4650   -22.9880    15.7180 h1         1 ZW0       0.025200
     43 H031         0.0660   -22.8310    18.3400 h1         1 ZW0       0.025200
     44 H032        -1.6710   -22.6480    18.1750 h1         1 ZW0       0.025200
     45 H042         1.4180   -24.1960    14.0950 h1         1 ZW0       0.011950
     46 H041        -0.1630   -23.5190    13.7400 h1         1 ZW0       0.011950
     47 H051         0.2980   -25.7550    15.7450 h1         1 ZW0       0.047450
     48 H052         0.0830   -26.0720    14.0340 h1         1 ZW0       0.047450
     49 H071        -3.1040   -26.4330    16.0310 h1         1 ZW0       0.047450
     50 H072        -1.4820   -26.9380    16.4370 h1         1 ZW0       0.047450
     51 H081        -2.8650   -24.3340    17.2110 h1         1 ZW0       0.011950
     52 H082        -2.6310   -25.7120    18.2600 h1         1 ZW0       0.011950
     53 H131         1.6690   -19.5870    16.4450 ha         1 ZW0       0.083000
     54 H141         2.5540   -18.8040    18.6420 ha         1 ZW0       0.069000
     55 H151         3.4800   -20.4910    20.2260 ha         1 ZW0       0.118500
     56 H191        -1.5860   -27.2320    20.4100 ha         1 ZW0       0.083000
     57 H201        -1.0230   -29.6510    20.1570 ha         1 ZW0       0.069000
     58 H291         0.5390   -24.6330    19.3520 h1         1 ZW0       0.025950
     59 H292        -1.0850   -24.9850    19.9450 h1         1 ZW0       0.025950
     60 O2          -6.3190   -23.7570    15.1230 o          1 ZW0      -0.714533
     61 C30          1.6310   -22.1650    15.5370 c3         1 ZW0       0.151000
     62 H211         0.7880   -30.2940    18.5700 ha         1 ZW0       0.118500
     63 H301         2.4790   -22.6040    15.0020 h1         1 ZW0       0.025950
     64 H302         1.2900   -21.3110    14.9270 h1         1 ZW0       0.025950
@<TRIPOS>BOND
     1     1     3 1   
     2     1    34 1   
     3     1    35 1   
     4     1    36 1   
     5     2    34 1   
     6     3     5 1   
     7     3    37 1   
     8     3    38 1   
     9     4    21 ar  
    10     4    22 ar  
    11     4    62 1   
    12     5    26 1   
    13     5    39 1   
    14     5    40 1   
    15     6    34 1   
    16     7    15 ar  
    17     7    28 ar  
    18     7    61 1   
    19     8    20 ar  
    20     8    24 1   
    21     8    29 ar  
    22     9    10 1   
    23     9    25 1   
    24     9    41 1   
    25     9    42 1   
    26    10    27 1   
    27    10    43 1   
    28    10    44 1   
    29    11    12 1   
    30    11    25 1   
    31    11    45 1   
    32    11    46 1   
    33    12    26 1   
    34    12    47 1   
    35    12    48 1   
    36    13    14 1   
    37    13    26 1   
    38    13    49 1   
    39    13    50 1   
    40    14    27 1   
    41    14    51 1   
    42    14    52 1   
    43    15    16 ar  
    44    15    53 1   
    45    16    17 ar  
    46    16    54 1   
    47    17    18 ar  
    48    17    55 1   
    49    18    19 1   
    50    18    28 ar  
    51    19    32 1   
    52    19    33 1   
    53    20    21 ar  
    54    20    56 1   
    55    21    57 1   
    56    22    23 1   
    57    22    29 ar  
    58    23    30 1   
    59    23    31 1   
    60    24    27 1   
    61    24    58 1   
    62    24    59 1   
    63    25    61 1   
    64    34    60 1   
    65    61    63 1   
    66    61    64 1   
@<TRIPOS>SUBSTRUCTURE
     1 ZW0         1 TEMP              0 ****  ****    0 ROOT
