@<TRIPOS>MOLECULE
ZW2
   29    31     1     0     0
SMALL
No Charge or Current Charge


@<TRIPOS>ATOM
      1 C1           2.5840    -1.0750    -0.6630 c          1 ZW2       0.625600
      2 C10         -4.4310    -1.5260     1.1200 ca         1 ZW2      -0.108500
      3 C11         -5.2310    -0.4600     1.5670 ca         1 ZW2      -0.105000
      4 C12         -5.0880     0.8130     0.9910 ca         1 ZW2      -0.108500
      5 C13         -4.1470     1.0210    -0.0330 ca         1 ZW2      -0.101000
      6 C2           1.3250    -0.3000    -0.6240 cc         1 ZW2      -0.259600
      7 C3           1.2290     0.8660     0.0670 cd         1 ZW2      -0.013400
      8 C4           3.5410     0.7260     0.7930 c          1 ZW2       0.624000
      9 C5           0.1120    -0.6590    -1.2710 cc         1 ZW2      -0.043000
     10 C6          -0.9050     0.2440    -1.0680 cd         1 ZW2      -0.206300
     11 C7          -2.3170     0.1750    -1.5900 c3         1 ZW2       0.040200
     12 C8          -3.3440    -0.0440    -0.4880 ca         1 ZW2      -0.096300
     13 C9          -3.4900    -1.3180     0.0960 ca         1 ZW2      -0.101000
     14 N1           3.6410    -0.4850     0.0720 n          1 ZW2      -0.263900
     15 N2           2.3210     1.3470     0.7510 ns         1 ZW2      -0.482600
     16 O1           4.9300    -1.1760     0.0810 oh         1 ZW2      -0.389100
     17 O2           2.7070    -2.1320    -1.2710 o          1 ZW2      -0.492000
     18 O3           4.4670     1.2080     1.4260 o          1 ZW2      -0.521000
     19 S           -0.3830     1.6000    -0.0390 ss         1 ZW2       0.223000
     20 H2          -5.9590    -0.6210     2.3600 ha         1 ZW2       0.115000
     21 H3          -5.7050     1.6390     1.3370 ha         1 ZW2       0.115000
     22 H4          -4.0420     2.0120    -0.4710 ha         1 ZW2       0.114000
     23 H5           0.0120    -1.5650    -1.8650 ha         1 ZW2       0.155000
     24 H6          -2.5450     1.0950    -2.1420 hc         1 ZW2       0.065200
     25 H7          -2.3990    -0.6320    -2.3290 hc         1 ZW2       0.065200
     26 H8          -2.8710    -2.1460    -0.2420 ha         1 ZW2       0.114000
     27 H9           2.2760     2.2140     1.2770 hn         1 ZW2       0.471000
     28 H10          4.8970    -1.7760     0.8590 ho         1 ZW2       0.448000
     29 H1          -4.5390    -2.5120     1.5670 ha         1 ZW2       0.115000
@<TRIPOS>BOND
     1     1     6 1   
     2     1    14 1   
     3     1    17 2   
     4     2     3 ar  
     5     2    13 ar  
     6     2    29 1   
     7     3     4 ar  
     8     3    20 1   
     9     4     5 ar  
    10     4    21 1   
    11     5    12 ar  
    12     5    22 1   
    13     6     7 2   
    14     6     9 1   
    15     7    15 1   
    16     7    19 1   
    17     8    14 1   
    18     8    15 1   
    19     8    18 2   
    20     9    10 2   
    21     9    23 1   
    22    10    11 1   
    23    10    19 1   
    24    11    12 1   
    25    11    24 1   
    26    11    25 1   
    27    12    13 ar  
    28    13    26 1   
    29    14    16 1   
    30    15    27 1   
    31    16    28 1   
@<TRIPOS>SUBSTRUCTURE
     1 ZW2         1 TEMP              0 ****  ****    0 ROOT
