@<TRIPOS>MOLECULE
ZW2
   29    31     1     0     0
SMALL
bcc


@<TRIPOS>ATOM
      1 C1           2.6720    -0.9330    -0.8650 c          1 ZW2       0.768100
      2 C10         -4.3700    -1.3290     1.3040 ca         1 ZW2      -0.126500
      3 C11         -5.1860    -0.2420     1.6000 ca         1 ZW2      -0.123000
      4 C12         -5.0720     0.9240     0.8570 ca         1 ZW2      -0.126500
      5 C13         -4.1470     1.0040    -0.1780 ca         1 ZW2      -0.119000
      6 C2           1.3560    -0.3640    -0.7190 cc         1 ZW2      -0.259600
      7 C3           1.1410     0.6180     0.2090 cd         1 ZW2       0.131500
      8 C4           3.4060     0.6190     0.9690 c          1 ZW2       0.833500
      9 C5           0.1710    -0.6950    -1.4420 cc         1 ZW2      -0.061000
     10 C6          -0.9000     0.0350    -1.0570 cd         1 ZW2      -0.061400
     11 C7          -2.3000     0.0130    -1.5800 c3         1 ZW2       0.040200
     12 C8          -3.3270    -0.0780    -0.4790 ca         1 ZW2      -0.096300
     13 C9          -3.4460    -1.2450     0.2740 ca         1 ZW2      -0.119000
     14 N1           3.6030    -0.3800     0.0220 n          1 ZW2      -0.397900
     15 N2           2.1230     1.0920     1.0220 ns         1 ZW2      -0.436100
     16 O1           4.8830    -0.7970    -0.1110 oh         1 ZW2      -0.350100
     17 O2           2.9900    -1.8000    -1.6490 o          1 ZW2      -0.567500
     18 O3           4.2900     1.0260     1.6840 o          1 ZW2      -0.596500
     19 S           -0.4860     1.1510     0.2250 ss         1 ZW2      -0.066800
     20 H2          -5.9050    -0.3060     2.4050 ha         1 ZW2       0.133000
     21 H3          -5.7040     1.7740     1.0800 ha         1 ZW2       0.133000
     22 H4          -4.0670     1.9160    -0.7580 ha         1 ZW2       0.132000
     23 H5           0.1290    -1.4470    -2.2170 ha         1 ZW2       0.173000
     24 H6          -2.4830     0.9050    -2.1850 hc         1 ZW2       0.065200
     25 H7          -2.3870    -0.8430    -2.2540 hc         1 ZW2       0.065200
     26 H8          -2.8090    -2.0930     0.0500 ha         1 ZW2       0.132000
     27 H9           1.9360     1.8110     1.7070 hn         1 ZW2       0.357500
     28 H10          4.9910    -1.5600     0.4770 ho         1 ZW2       0.409000
     29 H1          -4.4550    -2.2430     1.8780 ha         1 ZW2       0.133000
@<TRIPOS>BOND
     1     1     6 1   
     2     1    14 1   
     3     1    17 2   
     4     2     3 ar  
     5     2    13 ar  
     6     2    29 1   
     7     3     4 ar  
     8     3    20 1   
     9     4     5 ar  
    10     4    21 1   
    11     5    12 ar  
    12     5    22 1   
    13     6     7 2   
    14     6     9 1   
    15     7    15 1   
    16     7    19 1   
    17     8    14 1   
    18     8    15 1   
    19     8    18 2   
    20     9    10 2   
    21     9    23 1   
    22    10    11 1   
    23    10    19 1   
    24    11    12 1   
    25    11    24 1   
    26    11    25 1   
    27    12    13 ar  
    28    13    26 1   
    29    14    16 1   
    30    15    27 1   
    31    16    28 1   
@<TRIPOS>SUBSTRUCTURE
     1 ZW2         1 TEMP              0 ****  ****    0 ROOT
