@<TRIPOS>MOLECULE
ZW3
   31    33     1     0     0
SMALL
abcg2


@<TRIPOS>ATOM
      1 C1           6.7500     1.6620     0.1160 c3         1 ZW3      -0.179100
      2 C2           5.2570     1.4970     0.1980 c          1 ZW3       0.610100
      3 O3           4.4920     2.3900     0.5100 o          1 ZW3      -0.581100
      4 N4           4.8200     0.2460    -0.1100 ns         1 ZW3      -0.395100
      5 C5           3.5100    -0.1850    -0.0860 cc         1 ZW3       0.219200
      6 C6           2.3610     0.5000     0.2330 cd         1 ZW3      -0.286100
      7 N7           1.3620    -0.4370     0.0860 na         1 ZW3       0.132100
      8 C8           0.0270    -0.3200     0.2740 cc         1 ZW3      -0.053000
      9 C9          -0.7920    -1.3990     0.0670 cd         1 ZW3      -0.130800
     10 C10         -2.2320    -1.3430     0.2360 cf         1 ZW3      -0.018200
     11 C11         -3.0550    -0.2870     0.1980 cc         1 ZW3      -0.130600
     12 S12         -2.6590     1.3910    -0.1250 ss         1 ZW3      -0.195200
     13 C13         -4.3710     1.8670    -0.0520 c          1 ZW3       0.602600
     14 O14         -4.7580     2.9880    -0.2200 o          1 ZW3      -0.458000
     15 N15         -5.1380     0.7680     0.2180 ns         1 ZW3      -0.480500
     16 C16         -4.5170    -0.4490     0.3800 c          1 ZW3       0.587200
     17 O17         -5.0960    -1.4810     0.6180 o          1 ZW3      -0.487000
     18 C18         -0.2020    -2.6400    -0.3160 cd         1 ZW3      -0.083000
     19 C19          1.1410    -2.7510    -0.5060 cc         1 ZW3      -0.084000
     20 C20          1.9600    -1.6230    -0.3060 cd         1 ZW3      -0.050000
     21 N21          3.2630    -1.4760    -0.4120 nc         1 ZW3      -0.333600
     22 H11C         7.0300     2.6810     0.3670 hc         1 ZW3       0.066700
     23 H12C         7.2500     0.9800     0.8060 hc         1 ZW3       0.066700
     24 H13C         7.1120     1.4340    -0.8870 hc         1 ZW3       0.066700
     25 H4           5.4980    -0.4590    -0.3610 hn         1 ZW3       0.337500
     26 H6           2.1550     1.5110     0.5280 h4         1 ZW3       0.262000
     27 H8          -0.3040     0.6430     0.6330 h4         1 ZW3       0.159000
     28 H10         -2.7160    -2.3030     0.3870 ha         1 ZW3       0.207000
     29 H18         -0.8420    -3.4990    -0.4630 ha         1 ZW3       0.129000
     30 H15         -6.1440     0.8580     0.2920 hn         1 ZW3       0.353500
     31 H19          1.5990    -3.6830    -0.8010 ha         1 ZW3       0.147000
@<TRIPOS>BOND
     1     1     2 1   
     2     1    22 1   
     3     1    23 1   
     4     1    24 1   
     5     2     3 2   
     6     2     4 1   
     7     4     5 1   
     8     4    25 1   
     9     5     6 2   
    10     5    21 1   
    11     6     7 1   
    12     6    26 1   
    13     7     8 1   
    14     7    20 1   
    15     8     9 2   
    16     8    27 1   
    17     9    10 1   
    18     9    18 1   
    19    10    11 2   
    20    10    28 1   
    21    11    12 1   
    22    11    16 1   
    23    12    13 1   
    24    13    14 2   
    25    13    15 1   
    26    15    16 1   
    27    15    30 1   
    28    16    17 2   
    29    18    19 2   
    30    18    29 1   
    31    19    20 1   
    32    19    31 1   
    33    20    21 2   
@<TRIPOS>SUBSTRUCTURE
     1 ZW3         1 TEMP              0 ****  ****    0 ROOT
