@<TRIPOS>MOLECULE
ZW3
   31    33     1     0     0
SMALL
No Charge or Current Charge


@<TRIPOS>ATOM
      1 C1           6.7810     1.6830     0.1110 c3         1 ZW3      -0.179100
      2 C2           5.2800     1.4910     0.2970 c          1 ZW3       0.610100
      3 O3           4.5740     2.3630     0.7820 o          1 ZW3      -0.581100
      4 N4           4.8060     0.2680    -0.1250 ns         1 ZW3      -0.395100
      5 C5           3.5160    -0.2170    -0.0980 cc         1 ZW3       0.219200
      6 C6           2.3940     0.4230     0.3650 cd         1 ZW3      -0.286100
      7 N7           1.3880    -0.4980     0.1610 na         1 ZW3       0.132100
      8 C8           0.0450    -0.3090     0.4810 cc         1 ZW3      -0.053000
      9 C9          -0.7850    -1.3890     0.1680 cd         1 ZW3      -0.130800
     10 C10         -2.2210    -1.3210     0.4600 cf         1 ZW3      -0.018200
     11 C11         -3.1090    -0.3020     0.2390 cc         1 ZW3      -0.130600
     12 S12         -2.6950     1.2750    -0.4330 ss         1 ZW3      -0.195200
     13 C13         -4.4330     1.7970    -0.3680 c          1 ZW3       0.602600
     14 O14         -4.9000     2.8700    -0.7090 o          1 ZW3      -0.458000
     15 N15         -5.1400     0.7530     0.1390 ns         1 ZW3      -0.480500
     16 C16         -4.5560    -0.4170     0.4960 c          1 ZW3       0.587200
     17 O17         -5.1600    -1.3770     0.9470 o          1 ZW3      -0.487000
     18 C18         -0.2250    -2.5910    -0.4150 cd         1 ZW3      -0.083000
     19 C19          1.1250    -2.6600    -0.6800 cc         1 ZW3      -0.084000
     20 C20          1.9670    -1.6160    -0.4020 cd         1 ZW3      -0.050000
     21 N21          3.2660    -1.4720    -0.5720 nc         1 ZW3      -0.333600
     22 H11C         7.1250     2.6640     0.4560 hc         1 ZW3       0.066700
     23 H12C         7.3110     0.8680     0.6170 hc         1 ZW3       0.066700
     24 H13C         7.0360     1.5120    -0.9410 hc         1 ZW3       0.066700
     25 H4           5.5150    -0.3460    -0.5040 hn         1 ZW3       0.337500
     26 H6           2.2420     1.4040     0.7980 h4         1 ZW3       0.262000
     27 H8          -0.2490     0.6270     0.9370 h4         1 ZW3       0.159000
     28 H10         -2.6700    -2.2520     0.8160 ha         1 ZW3       0.207000
     29 H18         -0.8640    -3.4370    -0.6500 ha         1 ZW3       0.129000
     30 H15         -6.1370     0.8510     0.2500 hn         1 ZW3       0.353500
     31 H19          1.5320    -3.5650    -1.1210 ha         1 ZW3       0.147000
@<TRIPOS>BOND
     1     1     2 1   
     2     1    22 1   
     3     1    23 1   
     4     1    24 1   
     5     2     3 2   
     6     2     4 1   
     7     4     5 1   
     8     4    25 1   
     9     5     6 2   
    10     5    21 1   
    11     6     7 1   
    12     6    26 1   
    13     7     8 1   
    14     7    20 1   
    15     8     9 2   
    16     8    27 1   
    17     9    10 1   
    18     9    18 1   
    19    10    11 2   
    20    10    28 1   
    21    11    12 1   
    22    11    16 1   
    23    12    13 1   
    24    13    14 2   
    25    13    15 1   
    26    15    16 1   
    27    15    30 1   
    28    16    17 2   
    29    18    19 2   
    30    18    29 1   
    31    19    20 1   
    32    19    31 1   
    33    20    21 2   
@<TRIPOS>SUBSTRUCTURE
     1 ZW3         1 TEMP              0 ****  ****    0 ROOT
