@<TRIPOS>MOLECULE
ZW4
   61    64     1     0     0
SMALL
abcg2


@<TRIPOS>ATOM
      1 C1         -39.4940   -59.5860   -26.2500 ca         1 ZW4      -0.114000
      2 N1         -36.0490   -55.5030   -23.9930 n          1 ZW4      -0.401800
      3 O1         -35.7570   -58.0430   -25.1430 os         1 ZW4      -0.444000
      4 C2         -38.4020   -58.9440   -25.6820 ca         1 ZW4      -0.089500
      5 O2         -36.7620   -53.3930   -24.4230 o          1 ZW4      -0.571100
      6 C3         -37.8100   -57.8610   -26.3280 ca         1 ZW4      -0.085300
      7 O3         -29.2590   -52.9890   -22.7100 o          1 ZW4      -0.542000
      8 C4         -38.3310   -57.4310   -27.5430 ca         1 ZW4      -0.089500
      9 C5         -39.4260   -58.0690   -28.1100 ca         1 ZW4      -0.114000
     10 C6         -40.0100   -59.1500   -27.4640 ca         1 ZW4      -0.103000
     11 C7         -36.6630   -57.1180   -25.7040 c6         1 ZW4       0.195600
     12 C8         -34.6500   -57.4070   -24.5430 c6         1 ZW4       0.137600
     13 C9         -35.0830   -56.4420   -23.4530 c6         1 ZW4       0.067000
     14 C10        -37.1760   -56.1510   -24.6360 c6         1 ZW4       0.063000
     15 C12        -34.6750   -53.6110   -23.3680 ca         1 ZW4      -0.148600
     16 C13        -33.5610   -53.3400   -24.1500 ca         1 ZW4       0.160000
     17 C14        -32.4330   -52.7250   -23.6400 ca         1 ZW4      -0.124500
     18 C15        -32.4070   -52.3610   -22.2950 ca         1 ZW4       0.243400
     19 C16        -33.5120   -52.6160   -21.4870 ca         1 ZW4      -0.124500
     20 C17        -34.6230   -53.2280   -22.0350 ca         1 ZW4       0.160000
     21 CL1        -33.5810   -53.8010   -25.8170 cl         1 ZW4      -0.180000
     22 N2         -31.3190   -51.6780   -21.7440 ne         1 ZW4      -0.672900
     23 S1         -29.9480   -52.2930   -21.6490 s6         1 ZW4       1.302500
     24 F1         -30.0280   -53.4270   -20.4790 f          1 ZW4      -0.299900
     25 N3         -29.0230   -51.1520   -21.0330 nq         1 ZW4      -0.763500
     26 CL2        -35.9830   -53.5640   -21.0220 cl         1 ZW4      -0.180000
     27 C18        -29.2760   -50.3430   -19.8280 cy         1 ZW4       0.227800
     28 C19        -27.5780   -51.2750   -20.7590 cy         1 ZW4       0.227800
     29 C20        -27.7500   -50.1440   -19.7270 cy         1 ZW4      -0.083700
     30 C21        -27.2970   -48.7850   -20.2350 c3         1 ZW4       0.172800
     31 N4         -25.8780   -48.7330   -20.5180 n3         1 ZW4      -0.718600
     32 C22        -25.0700   -48.7820   -19.3180 c3         1 ZW4       0.149100
     33 C23        -25.5450   -47.5700   -21.3130 c3         1 ZW4       0.149100
     34 H1         -39.9440   -60.4290   -25.7410 ha         1 ZW4       0.113000
     35 H2         -38.0120   -59.2930   -24.7340 ha         1 ZW4       0.118000
     36 H4         -37.8750   -56.5920   -28.0550 ha         1 ZW4       0.118000
     37 H5         -39.8200   -57.7240   -29.0570 ha         1 ZW4       0.113000
     38 H6         -40.8620   -59.6520   -27.9030 ha         1 ZW4       0.112000
     39 H7         -36.1550   -56.5190   -26.4760 h1         1 ZW4       0.050700
     40 H8         -34.0190   -58.1870   -24.1170 h1         1 ZW4       0.056700
     41 H9         -34.0620   -56.8650   -25.2950 h1         1 ZW4       0.056700
     42 H10        -35.5450   -56.9880   -22.6250 h1         1 ZW4       0.061200
     43 H11        -34.2120   -55.9220   -23.0610 h1         1 ZW4       0.061200
     44 H12        -37.8250   -55.4060   -25.0890 h1         1 ZW4       0.073200
     45 H13        -37.7570   -56.6970   -23.8840 h1         1 ZW4       0.073200
     46 H14        -31.5920   -52.5090   -24.2850 ha         1 ZW4       0.146000
     47 H15        -33.4930   -52.3320   -20.4440 ha         1 ZW4       0.146000
     48 H17        -29.8840   -49.4600   -20.0190 h1         1 ZW4       0.076200
     49 H18        -29.7020   -50.9190   -19.0060 h1         1 ZW4       0.076200
     50 H19        -27.2980   -52.2330   -20.3200 h1         1 ZW4       0.076200
     51 H20        -26.9490   -51.0570   -21.6200 h1         1 ZW4       0.076200
     52 H21        -27.3430   -50.3720   -18.7440 hc         1 ZW4       0.072700
     53 H22        -27.8320   -48.5680   -21.1660 h1         1 ZW4       0.043200
     54 H23        -27.6070   -48.0110   -19.5120 h1         1 ZW4       0.043200
     55 H25        -24.0130   -48.7660   -19.5850 h1         1 ZW4       0.033367
     56 H26        -25.2570   -47.9360   -18.6370 h1         1 ZW4       0.033367
     57 H27        -25.2470   -49.7020   -18.7610 h1         1 ZW4       0.033367
     58 H28        -24.4850   -47.5850   -21.5690 h1         1 ZW4       0.033367
     59 H29        -26.1130   -47.5780   -22.2450 h1         1 ZW4       0.033367
     60 H30        -25.7520   -46.6180   -20.8020 h1         1 ZW4       0.033367
     61 C11        -35.9320   -54.1660   -23.9770 c          1 ZW4       0.634700
@<TRIPOS>BOND
     1     1     4 ar  
     2     1    10 ar  
     3     1    34 1   
     4     2    13 1   
     5     2    14 1   
     6     2    61 1   
     7     3    11 1   
     8     3    12 1   
     9     4     6 ar  
    10     4    35 1   
    11     5    61 2   
    12     6     8 ar  
    13     6    11 1   
    14     7    23 2   
    15     8     9 ar  
    16     8    36 1   
    17     9    10 ar  
    18     9    37 1   
    19    10    38 1   
    20    11    14 1   
    21    11    39 1   
    22    12    13 1   
    23    12    40 1   
    24    12    41 1   
    25    13    42 1   
    26    13    43 1   
    27    14    44 1   
    28    14    45 1   
    29    15    16 ar  
    30    15    20 ar  
    31    15    61 1   
    32    16    17 ar  
    33    16    21 1   
    34    17    18 ar  
    35    17    46 1   
    36    18    19 ar  
    37    18    22 1   
    38    19    20 ar  
    39    19    47 1   
    40    20    26 1   
    41    22    23 2   
    42    23    24 1   
    43    23    25 1   
    44    25    27 1   
    45    25    28 1   
    46    27    29 1   
    47    27    48 1   
    48    27    49 1   
    49    28    29 1   
    50    28    50 1   
    51    28    51 1   
    52    29    30 1   
    53    29    52 1   
    54    30    31 1   
    55    30    53 1   
    56    30    54 1   
    57    31    32 1   
    58    31    33 1   
    59    32    55 1   
    60    32    56 1   
    61    32    57 1   
    62    33    58 1   
    63    33    59 1   
    64    33    60 1   
@<TRIPOS>SUBSTRUCTURE
     1 ZW4         1 TEMP              0 ****  ****    0 ROOT
