@<TRIPOS>MOLECULE
ZW4
   61    64     1     0     0
SMALL
No Charge or Current Charge


@<TRIPOS>ATOM
      1 C1         -38.7040   -59.2260   -26.9000 ca         1 ZW4      -0.114000
      2 N1         -35.6650   -55.1620   -23.9220 n          1 ZW4      -0.401800
      3 O1         -35.0290   -57.3830   -25.6610 os         1 ZW4      -0.444000
      4 C2         -37.7300   -58.4800   -26.2130 ca         1 ZW4      -0.089500
      5 O2         -37.2600   -53.9710   -22.7690 o          1 ZW4      -0.571100
      6 C3         -37.1600   -57.3350   -26.8070 ca         1 ZW4      -0.085300
      7 O3         -30.3770   -53.8280   -20.0070 o          1 ZW4      -0.542000
      8 C4         -37.5760   -56.9480   -28.0970 ca         1 ZW4      -0.089500
      9 C5         -38.5510   -57.6950   -28.7830 ca         1 ZW4      -0.114000
     10 C6         -39.1150   -58.8340   -28.1840 ca         1 ZW4      -0.103000
     11 C7         -36.1030   -56.5120   -26.0610 c6         1 ZW4       0.195600
     12 C8         -33.9340   -56.6670   -25.0630 c6         1 ZW4       0.137600
     13 C9         -34.3940   -55.9430   -23.7730 c6         1 ZW4       0.067000
     14 C10        -36.6890   -55.7830   -24.8210 c6         1 ZW4       0.063000
     15 C12        -35.0220   -53.6340   -22.0600 ca         1 ZW4      -0.148600
     16 C13        -34.0550   -52.7830   -22.6360 ca         1 ZW4       0.160000
     17 C14        -33.0740   -52.1810   -21.8330 ca         1 ZW4      -0.124500
     18 C15        -33.0440   -52.4200   -20.4520 ca         1 ZW4       0.243400
     19 C16        -34.0130   -53.2490   -19.8710 ca         1 ZW4      -0.124500
     20 C17        -34.9990   -53.8520   -20.6670 ca         1 ZW4       0.160000
     21 Cl1        -34.0670   -52.4100   -24.3600 cl         1 ZW4      -0.180000
     22 N2         -32.0680   -51.8150   -19.6580 ne         1 ZW4      -0.672900
     23 S1         -30.6410   -52.4940   -19.4570 s6         1 ZW4       1.302500
     24 F1         -30.1950   -52.3670   -17.8840 f          1 ZW4      -0.299900
     25 N3         -29.5220   -51.3430   -20.0540 nq         1 ZW4      -0.763500
     26 Cl2        -36.1660   -54.9220   -19.8920 cl         1 ZW4      -0.180000
     27 C18        -29.5370   -49.9530   -19.5210 cy         1 ZW4       0.227800
     28 C19        -28.0840   -51.4450   -19.6700 cy         1 ZW4       0.227800
     29 C20        -28.0380   -49.9110   -19.9720 cy         1 ZW4      -0.083700
     30 C21        -27.7260   -49.4670   -21.4160 c3         1 ZW4       0.172800
     31 N4         -26.3440   -49.7520   -21.8850 n3         1 ZW4      -0.718600
     32 C22        -25.2950   -49.0000   -21.1560 c3         1 ZW4       0.149100
     33 C23        -26.2110   -49.6050   -23.3520 c3         1 ZW4       0.149100
     34 H1         -39.1390   -60.1090   -26.4360 ha         1 ZW4       0.113000
     35 H2         -37.4150   -58.7940   -25.2200 ha         1 ZW4       0.118000
     36 H4         -37.1470   -56.0670   -28.5700 ha         1 ZW4       0.118000
     37 H5         -38.8680   -57.3900   -29.7780 ha         1 ZW4       0.113000
     38 H6         -39.8690   -59.4110   -28.7150 ha         1 ZW4       0.112000
     39 H7         -35.6930   -55.7570   -26.7470 h1         1 ZW4       0.050700
     40 H8         -33.1250   -57.3730   -24.8280 h1         1 ZW4       0.056700
     41 H9         -33.5450   -55.9340   -25.7850 h1         1 ZW4       0.056700
     42 H10        -34.5380   -56.6930   -22.9820 h1         1 ZW4       0.061200
     43 H11        -33.5760   -55.2880   -23.4450 h1         1 ZW4       0.061200
     44 H12        -37.3830   -55.0070   -25.1750 h1         1 ZW4       0.073200
     45 H13        -37.2810   -56.4970   -24.2320 h1         1 ZW4       0.073200
     46 H14        -32.3360   -51.5230   -22.2830 ha         1 ZW4       0.146000
     47 H15        -33.9990   -53.4290   -18.8000 ha         1 ZW4       0.146000
     48 H17        -30.2010   -49.2480   -20.0360 h1         1 ZW4       0.076200
     49 H18        -29.6680   -49.8620   -18.4350 h1         1 ZW4       0.076200
     50 H19        -27.8810   -51.6840   -18.6180 h1         1 ZW4       0.076200
     51 H20        -27.4550   -52.0640   -20.3200 h1         1 ZW4       0.076200
     52 H21        -27.4050   -49.3390   -19.2890 hc         1 ZW4       0.072700
     53 H22        -28.4460   -49.9770   -22.0720 h1         1 ZW4       0.043200
     54 H23        -27.9370   -48.3910   -21.4900 h1         1 ZW4       0.043200
     55 H25        -24.2980   -49.2540   -21.5400 h1         1 ZW4       0.033367
     56 H26        -25.4390   -47.9170   -21.2690 h1         1 ZW4       0.033367
     57 H27        -25.3040   -49.2400   -20.0850 h1         1 ZW4       0.033367
     58 H28        -25.2070   -49.9010   -23.6840 h1         1 ZW4       0.033367
     59 H29        -26.9380   -50.2420   -23.8740 h1         1 ZW4       0.033367
     60 H30        -26.3820   -48.5650   -23.6590 h1         1 ZW4       0.033367
     61 C11        -36.0810   -54.2750   -22.9030 c          1 ZW4       0.634700
@<TRIPOS>BOND
     1     1     4 ar  
     2     1    10 ar  
     3     1    34 1   
     4     2    13 1   
     5     2    14 1   
     6     2    61 1   
     7     3    11 1   
     8     3    12 1   
     9     4     6 ar  
    10     4    35 1   
    11     5    61 2   
    12     6     8 ar  
    13     6    11 1   
    14     7    23 2   
    15     8     9 ar  
    16     8    36 1   
    17     9    10 ar  
    18     9    37 1   
    19    10    38 1   
    20    11    14 1   
    21    11    39 1   
    22    12    13 1   
    23    12    40 1   
    24    12    41 1   
    25    13    42 1   
    26    13    43 1   
    27    14    44 1   
    28    14    45 1   
    29    15    16 ar  
    30    15    20 ar  
    31    15    61 1   
    32    16    17 ar  
    33    16    21 1   
    34    17    18 ar  
    35    17    46 1   
    36    18    19 ar  
    37    18    22 1   
    38    19    20 ar  
    39    19    47 1   
    40    20    26 1   
    41    22    23 2   
    42    23    24 1   
    43    23    25 1   
    44    25    27 1   
    45    25    28 1   
    46    27    29 1   
    47    27    48 1   
    48    27    49 1   
    49    28    29 1   
    50    28    50 1   
    51    28    51 1   
    52    29    30 1   
    53    29    52 1   
    54    30    31 1   
    55    30    53 1   
    56    30    54 1   
    57    31    32 1   
    58    31    33 1   
    59    32    55 1   
    60    32    56 1   
    61    32    57 1   
    62    33    58 1   
    63    33    59 1   
    64    33    60 1   
@<TRIPOS>SUBSTRUCTURE
     1 ZW4         1 TEMP              0 ****  ****    0 ROOT
