@<TRIPOS>MOLECULE
ZW5
   33    34     1     0     0
SMALL
abcg2


@<TRIPOS>ATOM
      1 C10        -15.4680    18.1590   -23.1910 c6         1 ZW5       0.157300
      2 C13        -12.8140    18.9370   -22.5230 c6         1 ZW5       0.163300
      3 C15        -10.3480    22.7010   -21.1880 ca         1 ZW5       0.131000
      4 C01        -10.4090    23.6950   -17.6750 c3         1 ZW5       0.147900
      5 C03        -10.8230    22.9370   -19.8970 ca         1 ZW5       0.103100
      6 C04        -12.1550    22.6120   -19.6340 ca         1 ZW5      -0.177000
      7 C05        -12.9580    22.0740   -20.6360 ca         1 ZW5      -0.065000
      8 C06        -12.4680    21.8410   -21.9170 ca         1 ZW5      -0.097300
      9 C07        -13.3480    21.2560   -22.9920 c3         1 ZW5       0.218100
     10 N08        -13.8730    19.9380   -22.6420 n3         1 ZW5      -0.726600
     11 C09        -14.8870    19.5020   -23.6010 c6         1 ZW5       0.163300
     12 N11        -14.3950    17.1700   -23.0930 n7         1 ZW5      -0.868400
     13 C12        -13.3940    17.5930   -22.1130 c6         1 ZW5       0.157300
     14 C14        -11.1370    22.1650   -22.1830 ca         1 ZW5      -0.114000
     15 H1         -16.0020    18.2850   -22.2350 h1         1 ZW5       0.037200
     16 H2         -16.1920    17.8290   -23.9390 h1         1 ZW5       0.037200
     17 H3         -12.2730    18.8230   -23.4790 h1         1 ZW5       0.040200
     18 H4         -12.0950    19.2700   -21.7730 h1         1 ZW5       0.040200
     19 H5          -9.5590    24.1020   -17.1330 h1         1 ZW5       0.044367
     20 H6         -11.2310    24.4150   -17.6670 h1         1 ZW5       0.044367
     21 H7         -10.7340    22.7630   -17.2060 h1         1 ZW5       0.044367
     22 H8         -12.5680    22.7810   -18.6510 ha         1 ZW5       0.120000
     23 H9         -13.9870    21.8260   -20.4070 ha         1 ZW5       0.126000
     24 H10        -12.7860    21.2220   -23.9410 h1         1 ZW5       0.039700
     25 H11        -14.2080    21.9120   -23.1560 h1         1 ZW5       0.039700
     26 H13        -14.4590    19.4160   -24.6150 h1         1 ZW5       0.040200
     27 H14        -15.6780    20.2530   -23.6360 h1         1 ZW5       0.040200
     28 H15        -14.7780    16.2710   -22.8260 hn         1 ZW5       0.411000
     29 H17        -13.8220    17.6890   -21.1020 h1         1 ZW5       0.037200
     30 H18        -12.5970    16.8480   -22.0720 h1         1 ZW5       0.037200
     31 H19        -10.7060    21.9950   -23.1620 ha         1 ZW5       0.131000
     32 F16         -9.0540    23.0090   -21.4620 f          1 ZW5      -0.173000
     33 O02         -9.9460    23.4630   -19.0060 os         1 ZW5      -0.332100
@<TRIPOS>BOND
     1     1    11 1   
     2     1    12 1   
     3     1    15 1   
     4     1    16 1   
     5     2    10 1   
     6     2    13 1   
     7     2    17 1   
     8     2    18 1   
     9     3     5 ar  
    10     3    14 ar  
    11     3    32 1   
    12     4    19 1   
    13     4    20 1   
    14     4    21 1   
    15     4    33 1   
    16     5     6 ar  
    17     5    33 1   
    18     6     7 ar  
    19     6    22 1   
    20     7     8 ar  
    21     7    23 1   
    22     8     9 1   
    23     8    14 ar  
    24     9    10 1   
    25     9    24 1   
    26     9    25 1   
    27    10    11 1   
    28    11    26 1   
    29    11    27 1   
    30    12    13 1   
    31    12    28 1   
    32    13    29 1   
    33    13    30 1   
    34    14    31 1   
@<TRIPOS>SUBSTRUCTURE
     1 ZW5         1 TEMP              0 ****  ****    0 ROOT
