@<TRIPOS>MOLECULE
ZW5
   33    34     1     0     0
SMALL
No Charge or Current Charge


@<TRIPOS>ATOM
      1 C10        -15.4860    18.0590   -23.2790 c6         1 ZW5       0.157300
      2 C13        -12.8080    18.9450   -22.5450 c6         1 ZW5       0.163300
      3 C15        -10.2750    22.5950   -21.1640 ca         1 ZW5       0.131000
      4 C01        -10.3340    23.7920   -17.6110 c3         1 ZW5       0.147900
      5 C03        -10.7770    22.9250   -19.8860 ca         1 ZW5       0.103100
      6 C04        -12.1510    22.7290   -19.6170 ca         1 ZW5      -0.177000
      7 C05        -12.9990    22.2120   -20.6130 ca         1 ZW5      -0.065000
      8 C06        -12.4940    21.8850   -21.8860 ca         1 ZW5      -0.097300
      9 C07        -13.4240    21.3220   -22.9570 c3         1 ZW5       0.218100
     10 N08        -13.9100    19.9570   -22.6520 n3         1 ZW5      -0.726600
     11 C09        -14.9460    19.4870   -23.6240 c6         1 ZW5       0.163300
     12 N11        -14.3940    17.0500   -23.1490 n7         1 ZW5      -0.868400
     13 C12        -13.3420    17.5150   -22.1990 c6         1 ZW5       0.157300
     14 C14        -11.1250    22.0800   -22.1560 ca         1 ZW5      -0.114000
     15 H1         -16.0410    18.1120   -22.3300 h1         1 ZW5       0.037200
     16 H2         -16.1950    17.7370   -24.0550 h1         1 ZW5       0.037200
     17 H3         -12.2520    18.8920   -23.4930 h1         1 ZW5       0.040200
     18 H4         -12.0870    19.2390   -21.7680 h1         1 ZW5       0.040200
     19 H5          -9.4850    24.1680   -17.0270 h1         1 ZW5       0.044367
     20 H6         -11.0970    24.5800   -17.6490 h1         1 ZW5       0.044367
     21 H7         -10.7500    22.9230   -17.0850 h1         1 ZW5       0.044367
     22 H8         -12.5780    22.9690   -18.6470 ha         1 ZW5       0.120000
     23 H9         -14.0550    22.0590   -20.3970 ha         1 ZW5       0.126000
     24 H10        -12.9050    21.3280   -23.9260 h1         1 ZW5       0.039700
     25 H11        -14.2790    22.0060   -23.0520 h1         1 ZW5       0.039700
     26 H13        -14.5260    19.4650   -24.6410 h1         1 ZW5       0.040200
     27 H14        -15.7950    20.1860   -23.6430 h1         1 ZW5       0.040200
     28 H15        -14.7910    16.1660   -22.8070 hn         1 ZW5       0.411000
     29 H17        -13.7600    17.5330   -21.1810 h1         1 ZW5       0.037200
     30 H18        -12.5050    16.8020   -22.1980 h1         1 ZW5       0.037200
     31 H19        -10.7170    21.8300   -23.1320 ha         1 ZW5       0.131000
     32 F16         -8.9630    22.7720   -21.4470 f          1 ZW5      -0.173000
     33 O02         -9.9050    23.4310   -18.9370 os         1 ZW5      -0.332100
@<TRIPOS>BOND
     1     1    11 1   
     2     1    12 1   
     3     1    15 1   
     4     1    16 1   
     5     2    10 1   
     6     2    13 1   
     7     2    17 1   
     8     2    18 1   
     9     3     5 ar  
    10     3    14 ar  
    11     3    32 1   
    12     4    19 1   
    13     4    20 1   
    14     4    21 1   
    15     4    33 1   
    16     5     6 ar  
    17     5    33 1   
    18     6     7 ar  
    19     6    22 1   
    20     7     8 ar  
    21     7    23 1   
    22     8     9 1   
    23     8    14 ar  
    24     9    10 1   
    25     9    24 1   
    26     9    25 1   
    27    10    11 1   
    28    11    26 1   
    29    11    27 1   
    30    12    13 1   
    31    12    28 1   
    32    13    29 1   
    33    13    30 1   
    34    14    31 1   
@<TRIPOS>SUBSTRUCTURE
     1 ZW5         1 TEMP              0 ****  ****    0 ROOT
