@<TRIPOS>MOLECULE
ZW7
   64    68     1     0     0
SMALL
abcg2


@<TRIPOS>ATOM
      1 C11          4.6610   -18.7500    23.4040 cx         1 ZW7      -0.099700
      2 C12          3.6070   -18.8080    24.4670 c3         1 ZW7       0.190600
      3 C14          4.2940   -19.1240    22.0010 cx         1 ZW7      -0.135200
      4 C16          5.4130   -19.6080    21.1180 c5         1 ZW7       0.125500
      5 C17          8.3390   -16.6210    19.7300 ca         1 ZW7      -0.124300
      6 C18          8.1590   -17.0960    18.4330 ca         1 ZW7      -0.070000
      7 C19          7.9430   -16.2150    17.3870 ca         1 ZW7      -0.129000
      8 C2          11.0670   -17.3610    20.9850 c          1 ZW7       0.614700
      9 C20          7.9260   -14.8460    17.6150 ca         1 ZW7      -0.048000
     10 C21          8.1170   -14.3680    18.9040 ca         1 ZW7      -0.197300
     11 C22          8.3110   -15.2530    19.9590 ca         1 ZW7      -0.028000
     12 C23          8.0890   -12.8950    19.1780 c3         1 ZW7       0.357300
     13 C27         12.3750   -18.0760    20.8300 ca         1 ZW7      -0.132600
     14 C28         12.6900   -19.1050    21.7110 ca         1 ZW7      -0.084000
     15 C29         13.9490   -19.6870    21.6930 ca         1 ZW7      -0.107000
     16 C30         14.8980   -19.2420    20.7850 ca         1 ZW7      -0.094000
     17 C31         14.5810   -18.2290    19.8920 ca         1 ZW7      -0.103000
     18 C32         13.3210   -17.6350    19.8980 cp         1 ZW7      -0.004000
     19 C33         13.0010   -16.6030    18.8900 cp         1 ZW7      -0.004000
     20 C34         13.8450   -15.5130    18.6980 ca         1 ZW7      -0.099500
     21 C35         13.5770   -14.5690    17.7190 ca         1 ZW7      -0.059000
     22 C36         12.4540   -14.7080    16.9140 ca         1 ZW7      -0.193300
     23 C37         11.6020   -15.7920    17.0960 ca         1 ZW7      -0.059000
     24 C38         11.8750   -16.7290    18.0770 ca         1 ZW7      -0.099500
     25 C39         12.1810   -13.7340    15.8130 c3         1 ZW7       0.356300
     26 C4           8.6410   -17.5840    20.8670 c3         1 ZW7       0.087000
     27 C5           7.6760   -18.7730    20.8340 c          1 ZW7       0.600100
     28 C8           5.8470   -17.2830    21.6680 c5         1 ZW7       0.125500
     29 C9           4.5640   -17.6920    22.3480 cx         1 ZW7      -0.135200
     30 F24          8.3480   -12.1690    18.0850 f          1 ZW7      -0.112000
     31 F25          6.8910   -12.4950    19.6320 f          1 ZW7      -0.112000
     32 F26          8.9870   -12.5390    20.1040 f          1 ZW7      -0.112000
     33 F40         12.8220   -12.5750    15.9900 f          1 ZW7      -0.114667
     34 F41         12.5720   -14.2110    14.6200 f          1 ZW7      -0.114667
     35 F42         10.8760   -13.4520    15.7000 f          1 ZW7      -0.114667
     36 N3           9.9780   -18.1130    20.7650 ns         1 ZW7      -0.499900
     37 N7           6.4150   -18.5480    21.2100 n          1 ZW7      -0.405800
     38 O1          11.0230   -16.1880    21.3180 o          1 ZW7      -0.584100
     39 O13          3.4680   -20.1490    24.8850 oh         1 ZW7      -0.655000
     40 O6           8.0640   -19.8650    20.4370 o          1 ZW7      -0.618100
     41 H1           5.6610   -19.0170    23.7420 hc         1 ZW7       0.097700
     42 H2           3.8960   -18.1550    25.3000 h1         1 ZW7       0.021700
     43 H3           2.6640   -18.4100    24.0660 h1         1 ZW7       0.021700
     44 H4           3.2900   -19.4730    21.7910 hc         1 ZW7       0.103200
     45 H5           5.0710   -19.7300    20.0860 h1         1 ZW7       0.063450
     46 H6           5.8350   -20.5580    21.4460 h1         1 ZW7       0.063450
     47 H7           8.1930   -18.1600    18.2300 ha         1 ZW7       0.128000
     48 H8           7.7980   -16.5930    16.3840 ha         1 ZW7       0.123000
     49 H9           7.7670   -14.1730    16.7840 ha         1 ZW7       0.136000
     50 H10          8.4510   -14.8870    20.9680 ha         1 ZW7       0.138000
     51 H11         11.9540   -19.4380    22.4320 ha         1 ZW7       0.122000
     52 H12         14.1870   -20.4800    22.3890 ha         1 ZW7       0.120000
     53 H13         15.8830   -19.6890    20.7620 ha         1 ZW7       0.119000
     54 H14         15.3150   -17.9070    19.1640 ha         1 ZW7       0.121000
     55 H15         14.7180   -15.3920    19.3260 ha         1 ZW7       0.123000
     56 H16         14.2510   -13.7320    17.6000 ha         1 ZW7       0.129000
     57 H17         10.7270   -15.9210    16.4730 ha         1 ZW7       0.129000
     58 H18         11.2110   -17.5760    18.1900 ha         1 ZW7       0.123000
     59 H19          8.5450   -17.0500    21.8170 h1         1 ZW7       0.085700
     60 H20          6.5320   -16.7670    22.3430 h1         1 ZW7       0.063450
     61 H21          5.6350   -16.6150    20.8290 h1         1 ZW7       0.063450
     62 H22          3.7660   -16.9620    22.3980 hc         1 ZW7       0.103200
     63 H23         10.0680   -19.0620    20.4310 hn         1 ZW7       0.348500
     64 H24          2.8760   -20.1670    25.6430 ho         1 ZW7       0.444000
@<TRIPOS>BOND
     1     1     2 1   
     2     1     3 1   
     3     1    29 1   
     4     1    41 1   
     5     2    39 1   
     6     2    42 1   
     7     2    43 1   
     8     3     4 1   
     9     3    29 1   
    10     3    44 1   
    11     4    37 1   
    12     4    45 1   
    13     4    46 1   
    14     5     6 ar  
    15     5    11 ar  
    16     5    26 1   
    17     6     7 ar  
    18     6    47 1   
    19     7     9 ar  
    20     7    48 1   
    21     8    13 1   
    22     8    36 1   
    23     8    38 2   
    24     9    10 ar  
    25     9    49 1   
    26    10    11 ar  
    27    10    12 1   
    28    11    50 1   
    29    12    30 1   
    30    12    31 1   
    31    12    32 1   
    32    13    14 ar  
    33    13    18 ar  
    34    14    15 ar  
    35    14    51 1   
    36    15    16 ar  
    37    15    52 1   
    38    16    17 ar  
    39    16    53 1   
    40    17    18 ar  
    41    17    54 1   
    42    18    19 1   
    43    19    20 ar  
    44    19    24 ar  
    45    20    21 ar  
    46    20    55 1   
    47    21    22 ar  
    48    21    56 1   
    49    22    23 ar  
    50    22    25 1   
    51    23    24 ar  
    52    23    57 1   
    53    24    58 1   
    54    25    33 1   
    55    25    34 1   
    56    25    35 1   
    57    26    27 1   
    58    26    36 1   
    59    26    59 1   
    60    27    37 1   
    61    27    40 2   
    62    28    29 1   
    63    28    37 1   
    64    28    60 1   
    65    28    61 1   
    66    29    62 1   
    67    36    63 1   
    68    39    64 1   
@<TRIPOS>SUBSTRUCTURE
     1 ZW7         1 TEMP              0 ****  ****    0 ROOT
