@<TRIPOS>MOLECULE
ZW7
   64    68     1     0     0
SMALL
No Charge or Current Charge


@<TRIPOS>ATOM
      1 C11          4.3970   -18.2550    23.4780 cx         1 ZW7      -0.099700
      2 C12          3.2310   -17.9560    24.4110 c3         1 ZW7       0.190600
      3 C14          4.2000   -19.0920    22.2280 cx         1 ZW7      -0.135200
      4 C16          5.4460   -19.8670    21.7810 c5         1 ZW7       0.125500
      5 C17          8.4180   -17.1600    19.6180 ca         1 ZW7      -0.124300
      6 C18          8.1190   -17.8540    18.4300 ca         1 ZW7      -0.070000
      7 C19          7.8090   -17.1450    17.2590 ca         1 ZW7      -0.129000
      8 C2          11.2650   -17.5870    20.9060 c          1 ZW7       0.614700
      9 C20          7.8040   -15.7410    17.2610 ca         1 ZW7      -0.048000
     10 C21          8.1210   -15.0300    18.4390 ca         1 ZW7      -0.197300
     11 C22          8.4190   -15.7520    19.6140 ca         1 ZW7      -0.028000
     12 C23          8.1320   -13.4990    18.4560 c3         1 ZW7       0.357300
     13 C27         12.5710   -18.2650    20.5890 ca         1 ZW7      -0.132600
     14 C28         12.9140   -19.5100    21.1530 ca         1 ZW7      -0.084000
     15 C29         14.1590   -20.0900    20.8610 ca         1 ZW7      -0.107000
     16 C30         15.0550   -19.4330    20.0030 ca         1 ZW7      -0.094000
     17 C31         14.7010   -18.2030    19.4210 ca         1 ZW7      -0.103000
     18 C32         13.4490   -17.5950    19.6860 cp         1 ZW7      -0.004000
     19 C33         13.0870   -16.3340    18.9650 cp         1 ZW7      -0.004000
     20 C34         13.9330   -15.2030    19.0170 ca         1 ZW7      -0.099500
     21 C35         13.6060   -14.0200    18.3300 ca         1 ZW7      -0.059000
     22 C36         12.4280   -13.9420    17.5580 ca         1 ZW7      -0.193300
     23 C37         11.5800   -15.0680    17.4950 ca         1 ZW7      -0.059000
     24 C38         11.9100   -16.2470    18.1840 ca         1 ZW7      -0.099500
     25 C39         12.0770   -12.6450    16.8200 c3         1 ZW7       0.356300
     26 C4           8.7680   -17.9190    20.9010 c3         1 ZW7       0.087000
     27 C5           7.7820   -19.1000    21.1870 c          1 ZW7       0.600100
     28 C8           5.8940   -17.4200    21.5660 c5         1 ZW7       0.125500
     29 C9           4.4700   -17.6190    22.1030 cx         1 ZW7      -0.135200
     30 F24          8.3410   -12.9660    17.2300 f          1 ZW7      -0.112000
     31 F25          6.9570   -13.0050    18.9060 f          1 ZW7      -0.112000
     32 F26          9.1020   -13.0050    19.2600 f          1 ZW7      -0.112000
     33 F40         11.5160   -11.7400    17.6530 f          1 ZW7      -0.114667
     34 F41         13.1700   -12.0590    16.2790 f          1 ZW7      -0.114667
     35 F42         11.2040   -12.8410    15.8050 f          1 ZW7      -0.114667
     36 N3          10.1600   -18.3980    20.8150 ns         1 ZW7      -0.499900
     37 N7           6.4400   -18.8010    21.5040 n          1 ZW7      -0.405800
     38 O1          11.1840   -16.4160    21.2520 o          1 ZW7      -0.584100
     39 O13          3.0510   -19.0250    25.3440 oh         1 ZW7      -0.655000
     40 O6           8.1520   -20.2700    21.1250 o          1 ZW7      -0.618100
     41 H1           5.3300   -18.3760    24.0240 hc         1 ZW7       0.097700
     42 H2           3.4350   -17.0170    24.9440 h1         1 ZW7       0.021700
     43 H3           2.3170   -17.8110    23.8200 h1         1 ZW7       0.021700
     44 H4           3.2040   -19.4770    22.0170 hc         1 ZW7       0.103200
     45 H5           5.2570   -20.4570    20.8740 h1         1 ZW7       0.063450
     46 H6           5.8060   -20.5560    22.5560 h1         1 ZW7       0.063450
     47 H7           8.1280   -18.9420    18.4080 ha         1 ZW7       0.128000
     48 H8           7.5720   -17.6850    16.3450 ha         1 ZW7       0.123000
     49 H9           7.5560   -15.2110    16.3430 ha         1 ZW7       0.136000
     50 H10          8.6620   -15.2160    20.5310 ha         1 ZW7       0.138000
     51 H11         12.2330   -20.0140    21.8360 ha         1 ZW7       0.122000
     52 H12         14.4320   -21.0450    21.3060 ha         1 ZW7       0.120000
     53 H13         16.0200   -19.8820    19.7780 ha         1 ZW7       0.119000
     54 H14         15.3950   -17.7230    18.7350 ha         1 ZW7       0.121000
     55 H15         14.8470   -15.2420    19.6050 ha         1 ZW7       0.123000
     56 H16         14.2740   -13.1630    18.4020 ha         1 ZW7       0.129000
     57 H17         10.6620   -15.0400    16.9120 ha         1 ZW7       0.129000
     58 H18         11.2460   -17.1050    18.1100 ha         1 ZW7       0.123000
     59 H19          8.6930   -17.2400    21.7600 h1         1 ZW7       0.085700
     60 H20          6.4930   -16.7760    22.2230 h1         1 ZW7       0.063450
     61 H21          5.8830   -16.9640    20.5670 h1         1 ZW7       0.063450
     62 H22          3.6680   -16.9510    21.7970 hc         1 ZW7       0.103200
     63 H23         10.3200   -19.3640    20.5560 hn         1 ZW7       0.348500
     64 H24          2.2880   -18.7800    25.9120 ho         1 ZW7       0.444000
@<TRIPOS>BOND
     1     1     2 1   
     2     1     3 1   
     3     1    29 1   
     4     1    41 1   
     5     2    39 1   
     6     2    42 1   
     7     2    43 1   
     8     3     4 1   
     9     3    29 1   
    10     3    44 1   
    11     4    37 1   
    12     4    45 1   
    13     4    46 1   
    14     5     6 ar  
    15     5    11 ar  
    16     5    26 1   
    17     6     7 ar  
    18     6    47 1   
    19     7     9 ar  
    20     7    48 1   
    21     8    13 1   
    22     8    36 1   
    23     8    38 2   
    24     9    10 ar  
    25     9    49 1   
    26    10    11 ar  
    27    10    12 1   
    28    11    50 1   
    29    12    30 1   
    30    12    31 1   
    31    12    32 1   
    32    13    14 ar  
    33    13    18 ar  
    34    14    15 ar  
    35    14    51 1   
    36    15    16 ar  
    37    15    52 1   
    38    16    17 ar  
    39    16    53 1   
    40    17    18 ar  
    41    17    54 1   
    42    18    19 1   
    43    19    20 ar  
    44    19    24 ar  
    45    20    21 ar  
    46    20    55 1   
    47    21    22 ar  
    48    21    56 1   
    49    22    23 ar  
    50    22    25 1   
    51    23    24 ar  
    52    23    57 1   
    53    24    58 1   
    54    25    33 1   
    55    25    34 1   
    56    25    35 1   
    57    26    27 1   
    58    26    36 1   
    59    26    59 1   
    60    27    37 1   
    61    27    40 2   
    62    28    29 1   
    63    28    37 1   
    64    28    60 1   
    65    28    61 1   
    66    29    62 1   
    67    36    63 1   
    68    39    64 1   
@<TRIPOS>SUBSTRUCTURE
     1 ZW7         1 TEMP              0 ****  ****    0 ROOT
