@<TRIPOS>MOLECULE
ZWA
   67    70     1     0     0
SMALL
abcg2


@<TRIPOS>ATOM
      1 C1           6.1220   -17.5870    21.5470 c3         1 ZWA       0.090800
      2 C10         12.4420   -18.6020    20.4770 ca         1 ZWA      -0.134600
      3 C11         12.7200   -19.8230    21.0790 ca         1 ZWA      -0.084000
      4 C12         13.9730   -20.4050    20.9410 ca         1 ZWA      -0.110000
      5 C13         14.9500   -19.7650    20.1940 ca         1 ZWA      -0.095000
      6 C14         14.6690   -18.5540    19.5750 ca         1 ZWA      -0.103000
      7 C15         13.4170   -17.9600    19.7040 cp         1 ZWA      -0.002000
      8 C16         13.1140   -16.6970    18.9950 cp         1 ZWA      -0.005000
      9 C17         13.8930   -15.5580    19.1910 ca         1 ZWA      -0.099000
     10 C18         13.5710   -14.3670    18.5650 ca         1 ZWA      -0.056500
     11 C19         12.4660   -14.2990    17.7210 ca         1 ZWA      -0.193300
     12 C20         11.7070   -15.4370    17.4880 ca         1 ZWA      -0.056500
     13 C21         12.0340   -16.6250    18.1200 ca         1 ZWA      -0.099000
     14 C22         12.1190   -12.9910    17.0830 c3         1 ZWA       0.357300
     15 C26          8.4320   -17.2060    19.2680 ca         1 ZWA      -0.078300
     16 C27          8.2570   -17.8120    18.0250 ca         1 ZWA      -0.149000
     17 C28          8.0460   -17.0170    16.9080 ca         1 ZWA      -0.076000
     18 C29          8.0110   -15.6360    17.0070 ca         1 ZWA      -0.175000
     19 C3           5.4810   -19.9540    21.0280 c3         1 ZWA       0.090800
     20 C30          8.1990   -15.0180    18.2500 ca         1 ZWA       0.315000
     21 C31          8.4020   -15.8250    19.3780 ca         1 ZWA      -0.155000
     22 C33          7.9340   -12.8660    19.5410 cy         1 ZWA       0.202300
     23 C34          7.5250   -11.6990    18.6170 cy         1 ZWA      -0.096700
     24 C35          8.5420   -10.5720    18.5900 c3         1 ZWA      -0.141400
     25 C36          8.1710    -9.4460    17.6640 c3         1 ZWA       0.300000
     26 C4           7.7100   -19.2020    20.5960 c          1 ZWA       0.597100
     27 C40          7.5970   -12.7080    17.4490 cy         1 ZWA       0.202300
     28 C6           8.7190   -18.0560    20.4960 c3         1 ZWA       0.081000
     29 F23         12.0120   -12.0130    17.9970 f          1 ZWA      -0.117000
     30 F24         13.0520   -12.5900    16.2080 f          1 ZWA      -0.117000
     31 F25         10.9590   -13.0300    16.4200 f          1 ZWA      -0.117000
     32 F37          8.0230    -9.8440    16.3890 f          1 ZWA      -0.118333
     33 F38          9.1030    -8.4810    17.6570 f          1 ZWA      -0.118333
     34 F39          7.0120    -8.8650    18.0130 f          1 ZWA      -0.118333
     35 N2           6.4730   -18.8930    21.0140 n          1 ZWA      -0.398800
     36 N32          8.2190   -13.6580    18.3560 nn         1 ZWA      -0.801400
     37 N7          10.0430   -18.6240    20.4270 ns         1 ZWA      -0.489900
     38 O5           8.0310   -20.3340    20.2570 o          1 ZWA      -0.614100
     39 O9          11.1030   -16.7980    21.2370 o          1 ZWA      -0.590100
     40 H1           5.0760   -17.5980    21.8380 h1         1 ZWA       0.044200
     41 H2           6.7050   -17.3330    22.4330 h1         1 ZWA       0.044200
     42 H3           6.2490   -16.7960    20.8070 h1         1 ZWA       0.044200
     43 H4          11.9650   -20.3120    21.6810 ha         1 ZWA       0.124000
     44 H5          14.1840   -21.3510    21.4220 ha         1 ZWA       0.119000
     45 H6          15.9300   -20.2100    20.0840 ha         1 ZWA       0.118000
     46 H7          15.4270   -18.0710    18.9700 ha         1 ZWA       0.121000
     47 H8          14.7400   -15.5930    19.8640 ha         1 ZWA       0.123500
     48 H9          14.1800   -13.4920    18.7560 ha         1 ZWA       0.130000
     49 H10         10.8510   -15.4190    16.8270 ha         1 ZWA       0.130000
     50 H11         11.4260   -17.5020    17.9330 ha         1 ZWA       0.123500
     51 H12          8.2850   -18.8900    17.9230 ha         1 ZWA       0.125000
     52 H13          7.9030   -17.4800    15.9400 ha         1 ZWA       0.113000
     53 H14          7.8500   -15.0360    16.1200 ha         1 ZWA       0.118000
     54 H15          4.4970   -19.5170    21.1680 h1         1 ZWA       0.044200
     55 H16          5.4790   -20.4980    20.0850 h1         1 ZWA       0.044200
     56 H17          5.6570   -20.6680    21.8350 h1         1 ZWA       0.044200
     57 H18          8.5530   -15.3660    20.3480 ha         1 ZWA       0.123000
     58 H19          7.1060   -13.2570    20.1430 h1         1 ZWA       0.058700
     59 H20          8.7900   -12.6920    20.1990 h1         1 ZWA       0.058700
     60 H21          6.5240   -11.3200    18.8180 hc         1 ZWA       0.077700
     61 H22          9.5240   -10.9520    18.3010 hc         1 ZWA       0.090700
     62 H23          8.6470   -10.1500    19.5930 hc         1 ZWA       0.090700
     63 H24          8.2100   -12.4290    16.5910 h1         1 ZWA       0.058700
     64 H25          6.6130   -13.0230    17.0870 h1         1 ZWA       0.058700
     65 H26          8.6660   -17.4280    21.3870 h1         1 ZWA       0.090700
     66 H27         10.1380   -19.5120    19.9560 hn         1 ZWA       0.341500
     67 C8          11.1380   -17.9150    20.7470 c          1 ZWA       0.614700
@<TRIPOS>BOND
     1     1    35 1   
     2     1    40 1   
     3     1    41 1   
     4     1    42 1   
     5     2     3 ar  
     6     2     7 ar  
     7     2    67 1   
     8     3     4 ar  
     9     3    43 1   
    10     4     5 ar  
    11     4    44 1   
    12     5     6 ar  
    13     5    45 1   
    14     6     7 ar  
    15     6    46 1   
    16     7     8 1   
    17     8     9 ar  
    18     8    13 ar  
    19     9    10 ar  
    20     9    47 1   
    21    10    11 ar  
    22    10    48 1   
    23    11    12 ar  
    24    11    14 1   
    25    12    13 ar  
    26    12    49 1   
    27    13    50 1   
    28    14    29 1   
    29    14    30 1   
    30    14    31 1   
    31    15    16 ar  
    32    15    21 ar  
    33    15    28 1   
    34    16    17 ar  
    35    16    51 1   
    36    17    18 ar  
    37    17    52 1   
    38    18    20 ar  
    39    18    53 1   
    40    19    35 1   
    41    19    54 1   
    42    19    55 1   
    43    19    56 1   
    44    20    21 ar  
    45    20    36 1   
    46    21    57 1   
    47    22    23 1   
    48    22    36 1   
    49    22    58 1   
    50    22    59 1   
    51    23    24 1   
    52    23    27 1   
    53    23    60 1   
    54    24    25 1   
    55    24    61 1   
    56    24    62 1   
    57    25    32 1   
    58    25    33 1   
    59    25    34 1   
    60    26    28 1   
    61    26    35 1   
    62    26    38 2   
    63    27    36 1   
    64    27    63 1   
    65    27    64 1   
    66    28    37 1   
    67    28    65 1   
    68    37    66 1   
    69    37    67 1   
    70    39    67 2   
@<TRIPOS>SUBSTRUCTURE
     1 ZWA         1 TEMP              0 ****  ****    0 ROOT
