@<TRIPOS>MOLECULE
ZWA
   67    70     1     0     0
SMALL
No Charge or Current Charge


@<TRIPOS>ATOM
      1 C1           5.7410   -17.7980    21.1890 c3         1 ZWA       0.090800
      2 C10         12.4670   -18.3990    20.5480 ca         1 ZWA      -0.134600
      3 C11         12.8060   -19.6390    21.1270 ca         1 ZWA      -0.084000
      4 C12         14.0790   -20.1880    20.9070 ca         1 ZWA      -0.110000
      5 C13         15.0080   -19.5060    20.1050 ca         1 ZWA      -0.095000
      6 C14         14.6590   -18.2830    19.5060 ca         1 ZWA      -0.103000
      7 C15         13.3800   -17.7050    19.6990 cp         1 ZWA      -0.002000
      8 C16         13.0320   -16.4500    18.9600 cp         1 ZWA      -0.005000
      9 C17         13.8670   -15.3120    19.0300 ca         1 ZWA      -0.099000
     10 C18         13.5620   -14.1420    18.3130 ca         1 ZWA      -0.056500
     11 C19         12.4110   -14.0800    17.4980 ca         1 ZWA      -0.193300
     12 C20         11.5790   -15.2160    17.4090 ca         1 ZWA      -0.056500
     13 C21         11.8890   -16.3830    18.1260 ca         1 ZWA      -0.099000
     14 C22         12.1020   -12.8060    16.7050 c3         1 ZWA       0.357300
     15 C26          8.3540   -17.2960    19.4000 ca         1 ZWA      -0.078300
     16 C27          8.2840   -17.8800    18.1200 ca         1 ZWA      -0.149000
     17 C28          8.0460   -17.0810    16.9900 ca         1 ZWA      -0.076000
     18 C29          7.8800   -15.6930    17.1330 ca         1 ZWA      -0.175000
     19 C3           5.3590   -20.2990    21.0340 c3         1 ZWA       0.090800
     20 C30          7.9520   -15.0940    18.4030 ca         1 ZWA       0.315000
     21 C31          8.1900   -15.9030    19.5280 ca         1 ZWA      -0.155000
     22 C33          7.5230   -12.8820    19.7330 cy         1 ZWA       0.202300
     23 C34          7.6530   -11.6550    18.7630 cy         1 ZWA      -0.096700
     24 C35          8.9990   -10.8840    18.7870 c3         1 ZWA      -0.141400
     25 C36          9.1230    -9.7440    17.7510 c3         1 ZWA       0.300000
     26 C4           7.6780   -19.3780    20.7430 c          1 ZWA       0.597100
     27 C40          7.3850   -12.6680    17.5900 cy         1 ZWA       0.202300
     28 C6           8.6430   -18.1510    20.6360 c3         1 ZWA       0.081000
     29 F23         12.3040   -11.6900    17.4430 f          1 ZWA      -0.117000
     30 F24         12.8930   -12.7040    15.6140 f          1 ZWA      -0.117000
     31 F25         10.8230   -12.7560    16.2680 f          1 ZWA      -0.117000
     32 F37          9.0250   -10.2060    16.4840 f          1 ZWA      -0.118333
     33 F38         10.3190    -9.1250    17.8710 f          1 ZWA      -0.118333
     34 F39          8.1580    -8.8140    17.9320 f          1 ZWA      -0.118333
     35 N2           6.2970   -19.1550    20.9730 n          1 ZWA      -0.398800
     36 N32          7.7980   -13.7290    18.5440 nn         1 ZWA      -0.801400
     37 N7          10.0530   -18.5890    20.6140 ns         1 ZWA      -0.489900
     38 O5           8.1000   -20.5250    20.6090 o          1 ZWA      -0.614100
     39 O9          11.0030   -16.5960    21.1610 o          1 ZWA      -0.590100
     40 H1           4.7130   -17.8600    21.5680 h1         1 ZWA       0.044200
     41 H2           6.3420   -17.2510    21.9250 h1         1 ZWA       0.044200
     42 H3           5.7300   -17.2460    20.2410 h1         1 ZWA       0.044200
     43 H4          12.0990   -20.1620    21.7680 ha         1 ZWA       0.124000
     44 H5          14.3490   -21.1380    21.3640 ha         1 ZWA       0.119000
     45 H6          15.9950   -19.9320    19.9350 ha         1 ZWA       0.118000
     46 H7          15.3810   -17.7850    18.8630 ha         1 ZWA       0.121000
     47 H8          14.7590   -15.3370    19.6510 ha         1 ZWA       0.123500
     48 H9          14.2270   -13.2830    18.3880 ha         1 ZWA       0.130000
     49 H10         10.6930   -15.2070    16.7780 ha         1 ZWA       0.130000
     50 H11         11.2410   -17.2500    18.0280 ha         1 ZWA       0.123500
     51 H12          8.4210   -18.9520    17.9970 ha         1 ZWA       0.125000
     52 H13          7.9940   -17.5370    16.0030 ha         1 ZWA       0.113000
     53 H14          7.7010   -15.0840    16.2520 ha         1 ZWA       0.118000
     54 H15          4.3190   -19.9500    21.0530 h1         1 ZWA       0.044200
     55 H16          5.4940   -20.9380    20.1520 h1         1 ZWA       0.044200
     56 H17          5.5550   -20.8880    21.9390 h1         1 ZWA       0.044200
     57 H18          8.2610   -15.4430    20.5090 ha         1 ZWA       0.123000
     58 H19          6.5210   -13.0050    20.1610 h1         1 ZWA       0.058700
     59 H20          8.2820   -12.9040    20.5250 h1         1 ZWA       0.058700
     60 H21          6.8450   -10.9280    18.8960 hc         1 ZWA       0.077700
     61 H22          9.8260   -11.5870    18.6350 hc         1 ZWA       0.090700
     62 H23          9.1490   -10.4540    19.7850 hc         1 ZWA       0.090700
     63 H24          8.0350   -12.5350    16.7180 h1         1 ZWA       0.058700
     64 H25          6.3350   -12.7170    17.2780 h1         1 ZWA       0.058700
     65 H26          8.4920   -17.5510    21.5410 h1         1 ZWA       0.090700
     66 H27         10.2520   -19.5440    20.3380 hn         1 ZWA       0.341500
     67 C8          11.1300   -17.7560    20.7930 c          1 ZWA       0.614700
@<TRIPOS>BOND
     1     1    35 1   
     2     1    40 1   
     3     1    41 1   
     4     1    42 1   
     5     2     3 ar  
     6     2     7 ar  
     7     2    67 1   
     8     3     4 ar  
     9     3    43 1   
    10     4     5 ar  
    11     4    44 1   
    12     5     6 ar  
    13     5    45 1   
    14     6     7 ar  
    15     6    46 1   
    16     7     8 1   
    17     8     9 ar  
    18     8    13 ar  
    19     9    10 ar  
    20     9    47 1   
    21    10    11 ar  
    22    10    48 1   
    23    11    12 ar  
    24    11    14 1   
    25    12    13 ar  
    26    12    49 1   
    27    13    50 1   
    28    14    29 1   
    29    14    30 1   
    30    14    31 1   
    31    15    16 ar  
    32    15    21 ar  
    33    15    28 1   
    34    16    17 ar  
    35    16    51 1   
    36    17    18 ar  
    37    17    52 1   
    38    18    20 ar  
    39    18    53 1   
    40    19    35 1   
    41    19    54 1   
    42    19    55 1   
    43    19    56 1   
    44    20    21 ar  
    45    20    36 1   
    46    21    57 1   
    47    22    23 1   
    48    22    36 1   
    49    22    58 1   
    50    22    59 1   
    51    23    24 1   
    52    23    27 1   
    53    23    60 1   
    54    24    25 1   
    55    24    61 1   
    56    24    62 1   
    57    25    32 1   
    58    25    33 1   
    59    25    34 1   
    60    26    28 1   
    61    26    35 1   
    62    26    38 2   
    63    27    36 1   
    64    27    63 1   
    65    27    64 1   
    66    28    37 1   
    67    28    65 1   
    68    37    66 1   
    69    37    67 1   
    70    39    67 2   
@<TRIPOS>SUBSTRUCTURE
     1 ZWA         1 TEMP              0 ****  ****    0 ROOT
