@<TRIPOS>MOLECULE
ZWD
   23    23     1     0     0
SMALL
abcg2


@<TRIPOS>ATOM
      1 C10         66.8110    65.2530    72.3730 c3         1 ZWD      -0.046000
      2 C01         63.1170    62.2240    71.1330 ca         1 ZWD      -0.035000
      3 C02         62.5810    61.2290    70.3370 ca         1 ZWD      -0.197000
      4 C03         63.2570    60.7960    69.1840 ca         1 ZWD       0.293000
      5 C04         64.4800    61.4060    68.8640 ca         1 ZWD      -0.197000
      6 C05         65.0100    62.3940    69.6740 ca         1 ZWD      -0.035000
      7 C06         64.3460    62.8190    70.8300 ca         1 ZWD      -0.167600
      8 C07         64.8600    63.8840    71.7380 c          1 ZWD       0.599700
      9 C11         67.0110    66.5140    71.4940 c          1 ZWD       0.701000
     10 N09         66.1830    64.1470    71.6790 ns         1 ZWD      -0.453900
     11 O08         64.1060    64.4750    72.5240 o          1 ZWD      -0.641100
     12 O12         66.8850    67.6180    72.0780 o          1 ZWD      -0.731500
     13 O13         67.3180    66.3250    70.2920 o          1 ZWD      -0.731500
     14 H102        67.7990    64.9280    72.7070 h1         1 ZWD       0.040200
     15 H101        66.2190    65.5010    73.2490 h1         1 ZWD       0.040200
     16 H011        62.5830    62.5530    72.0150 ha         1 ZWD       0.129000
     17 H021        61.6310    60.7760    70.5970 ha         1 ZWD       0.102500
     18 H041        65.0060    61.1000    67.9670 ha         1 ZWD       0.102500
     19 H051        65.9430    62.8530    69.3700 ha         1 ZWD       0.129000
     20 H091        66.7400    63.6690    70.9920 hn         1 ZWD       0.301500
     21 H142        61.7660    59.5880    68.4930 hn         1 ZWD       0.446500
     22 H141        63.1000    59.7030    67.4690 hn         1 ZWD       0.446500
     23 N14         62.7550    59.7680    68.4150 nv         1 ZWD      -1.095000
@<TRIPOS>BOND
     1     1     9 1   
     2     1    10 1   
     3     1    14 1   
     4     1    15 1   
     5     2     3 ar  
     6     2     7 ar  
     7     2    16 1   
     8     3     4 ar  
     9     3    17 1   
    10     4     5 ar  
    11     4    23 1   
    12     5     6 ar  
    13     5    18 1   
    14     6     7 ar  
    15     6    19 1   
    16     7     8 1   
    17     8    10 1   
    18     8    11 2   
    19     9    12 1   
    20     9    13 1   
    21    10    20 1   
    22    21    23 1   
    23    22    23 1   
@<TRIPOS>SUBSTRUCTURE
     1 ZWD         1 TEMP              0 ****  ****    0 ROOT
