@<TRIPOS>MOLECULE
ZWD
   23    23     1     0     0
SMALL
No Charge or Current Charge


@<TRIPOS>ATOM
      1 C10         66.5630    65.5400    72.3220 c3         1 ZWD      -0.046000
      2 C01         63.1630    61.9370    71.2890 ca         1 ZWD      -0.035000
      3 C02         62.6500    60.9740    70.4020 ca         1 ZWD      -0.197000
      4 C03         63.2400    60.7880    69.1470 ca         1 ZWD       0.293000
      5 C04         64.3440    61.5630    68.7760 ca         1 ZWD      -0.197000
      6 C05         64.8650    62.5290    69.6560 ca         1 ZWD      -0.035000
      7 C06         64.2780    62.7290    70.9300 ca         1 ZWD      -0.167600
      8 C07         64.8050    63.7570    71.9100 c          1 ZWD       0.599700
      9 C11         67.6120    66.3420    71.5020 c          1 ZWD       0.701000
     10 N09         65.8950    64.4990    71.5060 ns         1 ZWD      -0.453900
     11 O08         64.2950    63.9300    73.0100 o          1 ZWD      -0.641100
     12 O12         67.6570    67.5540    71.6530 o          1 ZWD      -0.731500
     13 O13         68.3140    65.7360    70.7040 o          1 ZWD      -0.731500
     14 H102        67.0740    65.0640    73.1680 h1         1 ZWD       0.040200
     15 H101        65.8070    66.2350    72.7090 h1         1 ZWD       0.040200
     16 H011        62.6880    62.0650    72.2610 ha         1 ZWD       0.129000
     17 H021        61.7930    60.3760    70.6980 ha         1 ZWD       0.102500
     18 H041        64.8060    61.4220    67.8020 ha         1 ZWD       0.102500
     19 H051        65.7230    63.1110    69.3300 ha         1 ZWD       0.129000
     20 H091        66.2780    64.3000    70.5910 hn         1 ZWD       0.301500
     21 H142        61.8510    59.4000    68.4960 hn         1 ZWD       0.446500
     22 H141        63.0690    59.8220    67.3240 hn         1 ZWD       0.446500
     23 N14         62.7390    59.8520    68.2870 nv         1 ZWD      -1.095000
@<TRIPOS>BOND
     1     1     9 1   
     2     1    10 1   
     3     1    14 1   
     4     1    15 1   
     5     2     3 ar  
     6     2     7 ar  
     7     2    16 1   
     8     3     4 ar  
     9     3    17 1   
    10     4     5 ar  
    11     4    23 1   
    12     5     6 ar  
    13     5    18 1   
    14     6     7 ar  
    15     6    19 1   
    16     7     8 1   
    17     8    10 1   
    18     8    11 2   
    19     9    12 1   
    20     9    13 1   
    21    10    20 1   
    22    21    23 1   
    23    22    23 1   
@<TRIPOS>SUBSTRUCTURE
     1 ZWD         1 TEMP              0 ****  ****    0 ROOT
