@<TRIPOS>MOLECULE
ZWE
   40    42     1     0     0
SMALL
abcg2


@<TRIPOS>ATOM
      1 C4          18.6020   -21.5650    91.1000 ca         1 ZWE       0.019100
      2 C14         21.8510   -29.7360    95.6680 ca         1 ZWE       0.355900
      3 C5          19.2320   -20.5020    90.4760 ca         1 ZWE       0.204000
      4 C6          18.9660   -20.2490    89.1440 ca         1 ZWE      -0.164000
      5 C7          18.0640   -21.0800    88.4780 ca         1 ZWE       0.172000
      6 C8          17.4140   -22.1450    89.0630 ca         1 ZWE      -0.109000
      7 C9          17.7000   -22.3840    90.4110 ca         1 ZWE      -0.075800
      8 C10         17.8840   -23.7210    93.8670 c3         1 ZWE       0.138900
      9 C12         21.0260   -27.2350    95.1360 ca         1 ZWE      -0.200000
     10 C13         22.1870   -27.7650    94.5830 ca         1 ZWE       0.143400
     11 N1          19.1710   -24.2280    94.2740 ns         1 ZWE      -0.522900
     12 N2          20.6280   -25.9140    94.8530 ns         1 ZWE      -0.149000
     13 C3          17.8970   -23.0680    92.5290 cc         1 ZWE      -0.014100
     14 N3          22.6140   -28.9950    94.8480 nb         1 ZWE      -0.225000
     15 C2          17.2500   -23.3640    91.3750 cd         1 ZWE      -0.064400
     16 O1          18.7340   -21.9700    92.3920 os         1 ZWE      -0.159200
     17 F1          20.0910   -19.7230    91.1600 f          1 ZWE      -0.156000
     18 F2          17.8220   -20.8070    87.1710 f          1 ZWE      -0.174000
     19 O2          18.4020   -26.3540    94.5760 o          1 ZWE      -0.620100
     20 N5          20.7220   -29.3130    96.2640 nb         1 ZWE      -0.225000
     21 C15         20.3290   -28.0720    96.0040 ca         1 ZWE       0.143400
     22 C16         17.3030   -22.8140    94.9610 c3         1 ZWE       0.282000
     23 F3          18.0880   -21.7540    95.2370 f          1 ZWE      -0.105000
     24 F4          16.0950   -22.3360    94.6040 f          1 ZWE      -0.105000
     25 F5          17.1430   -23.4960    96.1100 f          1 ZWE      -0.105000
     26 H1          19.4440   -19.4260    88.6320 ha         1 ZWE       0.156000
     27 H2          16.7230   -22.7550    88.4980 ha         1 ZWE       0.147000
     28 H3          17.2080   -24.5730    93.8180 h1         1 ZWE       0.131700
     29 H4          22.7960   -27.1650    93.9130 h4         1 ZWE       0.033100
     30 H5          19.9720   -23.6190    94.2080 hn         1 ZWE       0.332500
     31 H6          21.3620   -25.2410    94.6870 hn         1 ZWE       0.154000
     32 H10         23.1730   -31.2800    95.6470 hn         1 ZWE       0.493000
     33 H11         21.8090   -31.5080    96.6650 hn         1 ZWE       0.493000
     34 H12         19.4300   -27.7260    96.4980 h4         1 ZWE       0.033100
     35 C1          16.2720   -24.4560    91.1050 c3         1 ZWE      -0.034900
     36 C11         19.3380   -25.5590    94.5630 c          1 ZWE       0.662100
     37 N4          22.2310   -31.0230    95.8900 nv         1 ZWE      -1.050900
     38 H7          16.6110   -25.0760    90.2720 hc         1 ZWE       0.056033
     39 H8          16.1310   -25.0990    91.9720 hc         1 ZWE       0.056033
     40 H9          15.3000   -24.0400    90.8280 hc         1 ZWE       0.056033
@<TRIPOS>BOND
     1     1     3 ar  
     2     1     7 ar  
     3     1    16 1   
     4     2    14 ar  
     5     2    20 ar  
     6     2    37 1   
     7     3     4 ar  
     8     3    17 1   
     9     4     5 ar  
    10     4    26 1   
    11     5     6 ar  
    12     5    18 1   
    13     6     7 ar  
    14     6    27 1   
    15     7    15 1   
    16     8    11 1   
    17     8    13 1   
    18     8    22 1   
    19     8    28 1   
    20     9    10 ar  
    21     9    12 1   
    22     9    21 ar  
    23    10    14 ar  
    24    10    29 1   
    25    11    30 1   
    26    11    36 1   
    27    12    31 1   
    28    12    36 1   
    29    13    15 2   
    30    13    16 1   
    31    15    35 1   
    32    19    36 2   
    33    20    21 ar  
    34    21    34 1   
    35    22    23 1   
    36    22    24 1   
    37    22    25 1   
    38    32    37 1   
    39    33    37 1   
    40    35    38 1   
    41    35    39 1   
    42    35    40 1   
@<TRIPOS>SUBSTRUCTURE
     1 ZWE         1 TEMP              0 ****  ****    0 ROOT
