@<TRIPOS>MOLECULE
ZWE
   40    42     1     0     0
SMALL
No Charge or Current Charge


@<TRIPOS>ATOM
      1 C4          18.7550   -21.7190    90.9340 ca         1 ZWE       0.019100
      2 C14         22.2390   -29.6770    96.1120 ca         1 ZWE       0.355900
      3 C5          19.6010   -20.8030    90.2890 ca         1 ZWE       0.204000
      4 C6          19.2200   -20.3040    89.0270 ca         1 ZWE      -0.164000
      5 C7          18.0070   -20.7290    88.4380 ca         1 ZWE       0.172000
      6 C8          17.1670   -21.6490    89.0980 ca         1 ZWE      -0.109000
      7 C9          17.5810   -22.1210    90.3520 ca         1 ZWE      -0.075800
      8 C10         17.7660   -23.9440    93.6230 c3         1 ZWE       0.138900
      9 C12         21.0520   -27.4790    95.1310 ca         1 ZWE      -0.200000
     10 C13         22.4540   -27.6180    95.1500 ca         1 ZWE       0.143400
     11 N1          19.0420   -24.6410    93.8760 ns         1 ZWE      -0.522900
     12 N2          20.4760   -26.2870    94.5970 ns         1 ZWE      -0.149000
     13 C3          17.8560   -23.1260    92.3560 cc         1 ZWE      -0.014100
     14 N3          23.0540   -28.7200    95.6420 nb         1 ZWE      -0.225000
     15 C2          16.9910   -23.0390    91.2770 cd         1 ZWE      -0.064400
     16 O1          18.9700   -22.3060    92.1620 os         1 ZWE      -0.159200
     17 F1          20.7590   -20.4060    90.8620 f          1 ZWE      -0.156000
     18 F2          17.6490   -20.2470    87.2280 f          1 ZWE      -0.174000
     19 O2          18.1800   -26.5460    94.7700 o          1 ZWE      -0.620100
     20 N5          20.8980   -29.6600    96.1480 nb         1 ZWE      -0.225000
     21 C15         20.3000   -28.5560    95.6550 ca         1 ZWE       0.143400
     22 C16         17.2910   -23.0950    94.8380 c3         1 ZWE       0.282000
     23 F3          18.1950   -22.1380    95.1540 f          1 ZWE      -0.105000
     24 F4          16.1160   -22.4810    94.5670 f          1 ZWE      -0.105000
     25 F5          17.1060   -23.8650    95.9350 f          1 ZWE      -0.105000
     26 H1          19.8580   -19.5950    88.5090 ha         1 ZWE       0.156000
     27 H2          16.2350   -21.9770    88.6450 ha         1 ZWE       0.147000
     28 H3          16.9940   -24.7090    93.4570 h1         1 ZWE       0.131700
     29 H4          23.1080   -26.8360    94.7660 h4         1 ZWE       0.033100
     30 H5          19.9000   -24.1650    93.6260 hn         1 ZWE       0.332500
     31 H6          21.1550   -25.6130    94.2700 hn         1 ZWE       0.154000
     32 H10         23.8420   -30.7620    96.7940 hn         1 ZWE       0.493000
     33 H11         22.2890   -31.4430    97.1600 hn         1 ZWE       0.493000
     34 H12         19.2140   -28.5540    95.6900 h4         1 ZWE       0.033100
     35 C1          15.6830   -23.7690    91.1040 c3         1 ZWE      -0.034900
     36 C11         19.1550   -25.8860    94.4460 c          1 ZWE       0.662100
     37 N4          22.8410   -30.7880    96.6100 nv         1 ZWE      -1.050900
     38 H7          15.0550   -23.2930    90.3430 hc         1 ZWE       0.056033
     39 H8          15.8530   -24.8080    90.7970 hc         1 ZWE       0.056033
     40 H9          15.1110   -23.7840    92.0390 hc         1 ZWE       0.056033
@<TRIPOS>BOND
     1     1     3 ar  
     2     1     7 ar  
     3     1    16 1   
     4     2    14 ar  
     5     2    20 ar  
     6     2    37 1   
     7     3     4 ar  
     8     3    17 1   
     9     4     5 ar  
    10     4    26 1   
    11     5     6 ar  
    12     5    18 1   
    13     6     7 ar  
    14     6    27 1   
    15     7    15 1   
    16     8    11 1   
    17     8    13 1   
    18     8    22 1   
    19     8    28 1   
    20     9    10 ar  
    21     9    12 1   
    22     9    21 ar  
    23    10    14 ar  
    24    10    29 1   
    25    11    30 1   
    26    11    36 1   
    27    12    31 1   
    28    12    36 1   
    29    13    15 2   
    30    13    16 1   
    31    15    35 1   
    32    19    36 2   
    33    20    21 ar  
    34    21    34 1   
    35    22    23 1   
    36    22    24 1   
    37    22    25 1   
    38    32    37 1   
    39    33    37 1   
    40    35    38 1   
    41    35    39 1   
    42    35    40 1   
@<TRIPOS>SUBSTRUCTURE
     1 ZWE         1 TEMP              0 ****  ****    0 ROOT
