@<TRIPOS>MOLECULE
ZWG
   46    48     1     0     0
SMALL
No Charge or Current Charge


@<TRIPOS>ATOM
      1 C10         -9.9650     9.9620    -3.0780 ca         1 ZWG      -0.010000
      2 C13         -7.2050    10.0550    -3.7920 cp         1 ZWG      -0.070000
      3 C15         -9.0870     8.9380    -2.6810 ca         1 ZWG      -0.156000
      4 C17         -5.3540    10.4790    -5.4830 ca         1 ZWG      -0.191000
      5 C20         -3.3850     9.8340    -3.7010 ca         1 ZWG       0.366500
      6 C22         -3.3780     9.2120    -1.4720 cc         1 ZWG      -0.156100
      7 C24         -4.7060     9.7880    -3.2990 ca         1 ZWG      -0.128800
      8 C01        -14.6370    12.8090     0.5740 c3         1 ZWG      -0.091600
      9 C03        -12.3570    12.5400    -0.5050 c3         1 ZWG      -0.091600
     10 C04        -14.4450    11.3180    -1.4860 c3         1 ZWG      -0.107400
     11 C05        -13.7590    10.1460    -2.2500 c3         1 ZWG       0.082500
     12 C07        -12.4590    10.5830    -3.0250 c          1 ZWG       0.622100
     13 C11         -9.4560    11.0390    -3.8330 ca         1 ZWG      -0.156000
     14 C12         -8.0960    11.0790    -4.1880 ca         1 ZWG      -0.064500
     15 C14         -7.7280     8.9800    -3.0360 ca         1 ZWG      -0.064500
     16 C16         -5.7630    10.1030    -4.1810 cp         1 ZWG       0.059000
     17 C18         -3.9850    10.5020    -5.8180 ca         1 ZWG       0.356900
     18 C23         -4.6760     9.4080    -1.9030 cd         1 ZWG      -0.234200
     19 N06        -14.7850     9.4580    -3.1050 n8         1 ZWG      -0.982200
     20 N09        -11.3240     9.8590    -2.6750 ns         1 ZWG      -0.141000
     21 N19         -3.0010    10.1830    -4.9420 nb         1 ZWG      -0.684000
     22 N21         -2.6020     9.4820    -2.6170 na         1 ZWG      -0.327400
     23 O08        -12.4750    11.4710    -3.8740 o          1 ZWG      -0.580100
     24 H151        -9.4580     8.0970    -2.0990 ha         1 ZWG       0.129500
     25 H171        -6.0900    10.7380    -6.2390 ha         1 ZWG       0.124000
     26 H221        -2.9660     8.9300    -0.5040 h4         1 ZWG       0.214000
     27 H013       -14.1540    13.1390     1.5020 hc         1 ZWG       0.036867
     28 H012       -14.8790    13.6990    -0.0210 hc         1 ZWG       0.036867
     29 H011       -15.5750    12.3120     0.8450 hc         1 ZWG       0.036867
     30 H021       -13.5130    10.9940     0.4380 hc         1 ZWG       0.038700
     31 H032       -11.9760    13.0360     0.3960 hc         1 ZWG       0.036867
     32 H033       -11.5970    11.8160    -0.8110 hc         1 ZWG       0.036867
     33 H031       -12.4600    13.2990    -1.2910 hc         1 ZWG       0.036867
     34 H042       -14.6200    12.1510    -2.1790 hc         1 ZWG       0.050200
     35 H041       -15.4400    10.9790    -1.1680 hc         1 ZWG       0.050200
     36 H051       -13.4460     9.4120    -1.4940 h1         1 ZWG       0.058700
     37 H111       -10.0920    11.8610    -4.1460 ha         1 ZWG       0.129500
     38 H121        -7.7250    11.9230    -4.7660 ha         1 ZWG       0.119000
     39 H141        -7.0760     8.1620    -2.7360 ha         1 ZWG       0.119000
     40 H181        -3.6670    10.7840    -6.8210 h4         1 ZWG       0.018100
     41 H231        -5.5500     9.3070    -1.2620 ha         1 ZWG       0.208000
     42 H062       -15.6290     9.2730    -2.5480 hn         1 ZWG       0.406000
     43 H1         -15.1140    10.1100    -3.8300 hn         1 ZWG       0.406000
     44 H091       -11.4930     9.1310    -1.9930 hn         1 ZWG       0.151000
     45 H211        -1.5910     9.4380    -2.6640 hn         1 ZWG       0.360000
     46 C02        -13.7140    11.8520    -0.2170 c3         1 ZWG      -0.054700
@<TRIPOS>BOND
     1     1     3 ar  
     2     1    13 ar  
     3     1    20 1   
     4     2    14 ar  
     5     2    15 ar  
     6     2    16 1   
     7     3    15 ar  
     8     3    24 1   
     9     4    16 ar  
    10     4    17 ar  
    11     4    25 1   
    12     5     7 ar  
    13     5    21 ar  
    14     5    22 1   
    15     6    18 2   
    16     6    22 1   
    17     6    26 1   
    18     7    16 ar  
    19     7    18 1   
    20     8    27 1   
    21     8    28 1   
    22     8    29 1   
    23     8    46 1   
    24     9    31 1   
    25     9    32 1   
    26     9    33 1   
    27     9    46 1   
    28    10    11 1   
    29    10    34 1   
    30    10    35 1   
    31    10    46 1   
    32    11    12 1   
    33    11    19 1   
    34    11    36 1   
    35    12    20 1   
    36    12    23 2   
    37    13    14 ar  
    38    13    37 1   
    39    14    38 1   
    40    15    39 1   
    41    17    21 ar  
    42    17    40 1   
    43    18    41 1   
    44    19    42 1   
    45    19    43 1   
    46    20    44 1   
    47    22    45 1   
    48    30    46 1   
@<TRIPOS>SUBSTRUCTURE
     1 ZWG         1 TEMP              0 ****  ****    0 ROOT
