@<TRIPOS>MOLECULE
ZWG
   46    48     1     0     0
SMALL
abcg2


@<TRIPOS>ATOM
      1 C10        -10.0710     9.9500    -3.1160 ca         1 ZWG      -0.010000
      2 C13         -7.3280     9.9870    -3.7640 cp         1 ZWG      -0.070000
      3 C15         -9.1820     9.0410    -2.5370 ca         1 ZWG      -0.156000
      4 C17         -5.4780    10.2050    -5.4270 ca         1 ZWG      -0.191000
      5 C20         -3.5480     9.9000    -3.6180 ca         1 ZWG       0.366500
      6 C22         -3.5020     9.6250    -1.4130 cc         1 ZWG      -0.156100
      7 C24         -4.8860     9.8540    -3.1580 ca         1 ZWG      -0.128800
      8 C01        -14.3150    12.3740     0.7850 c3         1 ZWG      -0.091600
      9 C03        -12.1940    12.5210    -0.5160 c3         1 ZWG      -0.091600
     10 C04        -14.2700    11.4060    -1.5200 c3         1 ZWG      -0.107400
     11 C05        -13.7860    10.2700    -2.4300 c3         1 ZWG       0.082500
     12 C07        -12.4710    10.6140    -3.1150 c          1 ZWG       0.622100
     13 C11         -9.5750    10.8760    -4.0350 ca         1 ZWG      -0.156000
     14 C12         -8.2240    10.8820    -4.3440 ca         1 ZWG      -0.064500
     15 C14         -7.8380     9.0620    -2.8520 ca         1 ZWG      -0.064500
     16 C16         -5.8990    10.0120    -4.1150 cp         1 ZWG       0.059000
     17 C18         -4.1200    10.2240    -5.7480 ca         1 ZWG       0.356900
     18 C23         -4.8250     9.6820    -1.7410 cd         1 ZWG      -0.234200
     19 N06        -14.7230     9.9210    -3.4890 n8         1 ZWG      -0.982200
     20 N09        -11.4080     9.8650    -2.7230 ns         1 ZWG      -0.141000
     21 N19         -3.1420    10.0730    -4.8660 nb         1 ZWG      -0.684000
     22 N21         -2.7360     9.7540    -2.5370 na         1 ZWG      -0.327400
     23 O08        -12.4160    11.4970    -3.9520 o          1 ZWG      -0.580100
     24 H151        -9.5500     8.3030    -1.8330 ha         1 ZWG       0.129500
     25 H171        -6.2020    10.3210    -6.2230 ha         1 ZWG       0.124000
     26 H221        -3.0390     9.5050    -0.4470 h4         1 ZWG       0.214000
     27 H013       -13.7580    12.5640     1.7050 hc         1 ZWG       0.036867
     28 H012       -14.6750    13.3370     0.4150 hc         1 ZWG       0.036867
     29 H011       -15.1880    11.7730     1.0440 hc         1 ZWG       0.036867
     30 H021       -13.1270    10.7150     0.1590 hc         1 ZWG       0.038700
     31 H032       -11.6870    12.7460     0.4240 hc         1 ZWG       0.036867
     32 H033       -11.4650    12.0280    -1.1560 hc         1 ZWG       0.036867
     33 H031       -12.4590    13.4720    -0.9850 hc         1 ZWG       0.036867
     34 H042       -14.3740    12.3260    -2.1060 hc         1 ZWG       0.050200
     35 H041       -15.2820    11.1250    -1.2150 hc         1 ZWG       0.050200
     36 H051       -13.6570     9.3800    -1.8060 h1         1 ZWG       0.058700
     37 H111       -10.2250    11.5930    -4.5070 ha         1 ZWG       0.129500
     38 H121        -7.8630    11.6220    -5.0480 ha         1 ZWG       0.119000
     39 H141        -7.1850     8.3290    -2.3960 ha         1 ZWG       0.119000
     40 H181        -3.8200    10.3660    -6.7800 h4         1 ZWG       0.018100
     41 H231        -5.6470     9.6160    -1.0470 ha         1 ZWG       0.208000
     42 H062       -15.5930     9.6200    -3.0670 hn         1 ZWG       0.406000
     43 H1         -14.9480    10.7500    -4.0270 hn         1 ZWG       0.406000
     44 H091       -11.6000     9.1580    -2.0280 hn         1 ZWG       0.151000
     45 H211        -1.7290     9.7470    -2.5640 hn         1 ZWG       0.360000
     46 C02        -13.4430    11.6800    -0.2580 c3         1 ZWG      -0.054700
@<TRIPOS>BOND
     1     1     3 ar  
     2     1    13 ar  
     3     1    20 1   
     4     2    14 ar  
     5     2    15 ar  
     6     2    16 1   
     7     3    15 ar  
     8     3    24 1   
     9     4    16 ar  
    10     4    17 ar  
    11     4    25 1   
    12     5     7 ar  
    13     5    21 ar  
    14     5    22 1   
    15     6    18 2   
    16     6    22 1   
    17     6    26 1   
    18     7    16 ar  
    19     7    18 1   
    20     8    27 1   
    21     8    28 1   
    22     8    29 1   
    23     8    46 1   
    24     9    31 1   
    25     9    32 1   
    26     9    33 1   
    27     9    46 1   
    28    10    11 1   
    29    10    34 1   
    30    10    35 1   
    31    10    46 1   
    32    11    12 1   
    33    11    19 1   
    34    11    36 1   
    35    12    20 1   
    36    12    23 2   
    37    13    14 ar  
    38    13    37 1   
    39    14    38 1   
    40    15    39 1   
    41    17    21 ar  
    42    17    40 1   
    43    18    41 1   
    44    19    42 1   
    45    19    43 1   
    46    20    44 1   
    47    22    45 1   
    48    30    46 1   
@<TRIPOS>SUBSTRUCTURE
     1 ZWG         1 TEMP              0 ****  ****    0 ROOT
