@<TRIPOS>MOLECULE
ZWI
   53    52     1     0     0
SMALL
abcg2


@<TRIPOS>ATOM
      1 O3           6.9110    -0.0860     1.2220 o          1 ZWI      -0.673867
      2 S1           6.7290     0.6950    -0.0170 s6         1 ZWI       1.310600
      3 O1           7.5270     1.9350    -0.0490 o          1 ZWI      -0.673867
      4 O2           6.8740    -0.1210    -1.2390 o          1 ZWI      -0.673867
      5 C1           5.0120     1.2460    -0.0010 c3         1 ZWI      -0.363400
      6 C2           4.0340     0.0810     0.0110 c3         1 ZWI      -0.053400
      7 C3           2.6190     0.6310     0.0190 c3         1 ZWI       0.099600
      8 N1           1.5190    -0.4010     0.0120 n4         1 ZWI      -0.499000
      9 C14          1.6140    -1.2420    -1.2110 c3         1 ZWI       0.075900
     10 C15          1.6160    -1.2630     1.2200 c3         1 ZWI       0.075900
     11 C4           0.2170     0.3670     0.0210 c3         1 ZWI       0.096600
     12 C5          -1.0500    -0.4670     0.0050 c3         1 ZWI      -0.099400
     13 C6          -2.2740     0.4460     0.0150 c3         1 ZWI      -0.074400
     14 C7          -3.5720    -0.3510     0.0040 c3         1 ZWI      -0.075400
     15 C8          -4.8190     0.5250    -0.0230 c3         1 ZWI      -0.073400
     16 C10         -6.1080    -0.2870    -0.0240 c3         1 ZWI      -0.074400
     17 C9          -7.3670     0.5700    -0.0420 c3         1 ZWI      -0.074400
     18 C11         -8.6490    -0.2540    -0.0190 c3         1 ZWI      -0.075400
     19 C12         -9.9160     0.5930    -0.0180 c3         1 ZWI      -0.074400
     20 C13        -11.1840    -0.2510    -0.0020 c3         1 ZWI      -0.089100
     21 H11          4.8850     1.8770     0.8810 h1         1 ZWI       0.077200
     22 H12          4.8690     1.8730    -0.8830 h1         1 ZWI       0.077200
     23 H22          4.2090    -0.5380    -0.8690 hc         1 ZWI       0.071700
     24 H21          4.2220    -0.5330     0.8920 hc         1 ZWI       0.071700
     25 H31          2.4560     1.2450     0.9060 hx         1 ZWI       0.082700
     26 H32          2.4510     1.2590    -0.8560 hx         1 ZWI       0.082700
     27 H141         2.5550    -1.7820    -1.2100 hx         1 ZWI       0.092533
     28 H142         0.8040    -1.9630    -1.2240 hx         1 ZWI       0.092533
     29 H143         1.5580    -0.6030    -2.0900 hx         1 ZWI       0.092533
     30 H152         2.5620    -1.7970     1.2130 hx         1 ZWI       0.092533
     31 H151         1.5520    -0.6410     2.1090 hx         1 ZWI       0.092533
     32 H153         0.8110    -1.9900     1.2160 hx         1 ZWI       0.092533
     33 H41          0.2440     0.9930     0.9130 hx         1 ZWI       0.088700
     34 H42          0.2500     1.0220    -0.8510 hx         1 ZWI       0.088700
     35 H52         -1.0940    -1.1000    -0.8840 hc         1 ZWI       0.059700
     36 H51         -1.0990    -1.1250     0.8750 hc         1 ZWI       0.059700
     37 H62         -2.2460     1.0870     0.9020 hc         1 ZWI       0.050200
     38 H61         -2.2440     1.1140    -0.8520 hc         1 ZWI       0.050200
     39 H71         -3.5800    -1.0180    -0.8650 hc         1 ZWI       0.042200
     40 H72         -3.6060    -1.0000     0.8850 hc         1 ZWI       0.042200
     41 H82         -4.8110     1.1970     0.8430 hc         1 ZWI       0.041700
     42 H81         -4.7930     1.1700    -0.9080 hc         1 ZWI       0.041700
     43 H101        -6.1140    -0.9550    -0.8920 hc         1 ZWI       0.038700
     44 H102        -6.1270    -0.9380     0.8580 hc         1 ZWI       0.038700
     45 H91         -7.3560     1.2510     0.8170 hc         1 ZWI       0.038700
     46 H92         -7.3610     1.2070    -0.9340 hc         1 ZWI       0.038700
     47 H112        -8.6640    -0.9250    -0.8850 hc         1 ZWI       0.037700
     48 H111        -8.6470    -0.9020     0.8650 hc         1 ZWI       0.037700
     49 H121        -9.9060     1.2570     0.8510 hc         1 ZWI       0.037700
     50 H122        -9.9180     1.2440    -0.8980 hc         1 ZWI       0.037700
     51 H132       -12.0820     0.3680    -0.0230 hc         1 ZWI       0.033367
     52 H133       -11.2230    -0.9180    -0.8650 hc         1 ZWI       0.033367
     53 H131       -11.2310    -0.8710     0.8950 hc         1 ZWI       0.033367
@<TRIPOS>BOND
     1     1     2 1   
     2     2     3 1   
     3     2     4 1   
     4     2     5 1   
     5     5     6 1   
     6     5    21 1   
     7     5    22 1   
     8     6     7 1   
     9     6    23 1   
    10     6    24 1   
    11     7     8 1   
    12     7    25 1   
    13     7    26 1   
    14     8     9 1   
    15     8    10 1   
    16     8    11 1   
    17     9    27 1   
    18     9    28 1   
    19     9    29 1   
    20    10    30 1   
    21    10    31 1   
    22    10    32 1   
    23    11    12 1   
    24    11    33 1   
    25    11    34 1   
    26    12    13 1   
    27    12    35 1   
    28    12    36 1   
    29    13    14 1   
    30    13    37 1   
    31    13    38 1   
    32    14    15 1   
    33    14    39 1   
    34    14    40 1   
    35    15    16 1   
    36    15    41 1   
    37    15    42 1   
    38    16    17 1   
    39    16    43 1   
    40    16    44 1   
    41    17    18 1   
    42    17    45 1   
    43    17    46 1   
    44    18    19 1   
    45    18    47 1   
    46    18    48 1   
    47    19    20 1   
    48    19    49 1   
    49    19    50 1   
    50    20    51 1   
    51    20    52 1   
    52    20    53 1   
@<TRIPOS>SUBSTRUCTURE
     1 ZWI         1 TEMP              0 ****  ****    0 ROOT
