@<TRIPOS>MOLECULE
ZWI
   53    52     1     0     0
SMALL
No Charge or Current Charge


@<TRIPOS>ATOM
      1 O3           7.0460    -0.0130     1.2450 o          1 ZWI      -0.673867
      2 S1           6.9200     0.7660     0.0050 s6         1 ZWI       1.310600
      3 O1           7.6630     2.0340     0.0030 o          1 ZWI      -0.673867
      4 O2           7.0480    -0.0190    -1.2300 o          1 ZWI      -0.673867
      5 C1           5.1890     1.2950     0.0020 c3         1 ZWI      -0.363400
      6 C2           4.1720     0.1260     0.0040 c3         1 ZWI      -0.053400
      7 C3           2.7130     0.6300     0.0010 c3         1 ZWI       0.099600
      8 N1           1.5830    -0.4140     0.0020 n4         1 ZWI      -0.499000
      9 C14          1.6860    -1.2970    -1.2520 c3         1 ZWI       0.075900
     10 C15          1.6830    -1.2910     1.2610 c3         1 ZWI       0.075900
     11 C4           0.2450     0.3440    -0.0010 c3         1 ZWI       0.096600
     12 C5          -1.0560    -0.4860    -0.0010 c3         1 ZWI      -0.099400
     13 C6          -2.3170     0.4040    -0.0040 c3         1 ZWI      -0.074400
     14 C7          -3.6290    -0.4100    -0.0040 c3         1 ZWI      -0.075400
     15 C8          -4.8910     0.4800    -0.0080 c3         1 ZWI      -0.073400
     16 C10         -6.2040    -0.3330    -0.0080 c3         1 ZWI      -0.074400
     17 C9          -7.4670     0.5570    -0.0120 c3         1 ZWI      -0.074400
     18 C11         -8.7790    -0.2570    -0.0120 c3         1 ZWI      -0.075400
     19 C12        -10.0420     0.6330    -0.0150 c3         1 ZWI      -0.074400
     20 C13        -11.3520    -0.1780    -0.0160 c3         1 ZWI      -0.089100
     21 H11          5.0600     1.9180     0.8930 h1         1 ZWI       0.077200
     22 H12          5.0620     1.9140    -0.8930 h1         1 ZWI       0.077200
     23 H22          4.3400    -0.5050    -0.8770 hc         1 ZWI       0.071700
     24 H21          4.3380    -0.5010     0.8880 hc         1 ZWI       0.071700
     25 H31          2.5690     1.2620     0.8810 hx         1 ZWI       0.082700
     26 H32          2.5710     1.2570    -0.8820 hx         1 ZWI       0.082700
     27 H141         2.6430    -1.8230    -1.2470 hx         1 ZWI       0.092533
     28 H142         0.8730    -2.0250    -1.2490 hx         1 ZWI       0.092533
     29 H143         1.6150    -0.6680    -2.1420 hx         1 ZWI       0.092533
     30 H152         2.6400    -1.8170     1.2610 hx         1 ZWI       0.092533
     31 H151         1.6100    -0.6580     2.1470 hx         1 ZWI       0.092533
     32 H153         0.8700    -2.0190     1.2590 hx         1 ZWI       0.092533
     33 H41          0.2390     0.9920     0.8790 hx         1 ZWI       0.088700
     34 H42          0.2410     0.9880    -0.8840 hx         1 ZWI       0.088700
     35 H52         -1.0760    -1.1380    -0.8820 hc         1 ZWI       0.059700
     36 H51         -1.0780    -1.1330     0.8830 hc         1 ZWI       0.059700
     37 H62         -2.2980     1.0590     0.8760 hc         1 ZWI       0.050200
     38 H61         -2.2950     1.0550    -0.8880 hc         1 ZWI       0.050200
     39 H71         -3.6480    -1.0640    -0.8850 hc         1 ZWI       0.042200
     40 H72         -3.6500    -1.0600     0.8790 hc         1 ZWI       0.042200
     41 H82         -4.8730     1.1350     0.8720 hc         1 ZWI       0.041700
     42 H81         -4.8710     1.1310    -0.8910 hc         1 ZWI       0.041700
     43 H101        -6.2220    -0.9880    -0.8890 hc         1 ZWI       0.038700
     44 H102        -6.2250    -0.9840     0.8750 hc         1 ZWI       0.038700
     45 H91         -7.4480     1.2110     0.8690 hc         1 ZWI       0.038700
     46 H92         -7.4460     1.2070    -0.8950 hc         1 ZWI       0.038700
     47 H112        -8.7980    -0.9110    -0.8920 hc         1 ZWI       0.037700
     48 H111        -8.8000    -0.9070     0.8710 hc         1 ZWI       0.037700
     49 H121       -10.0280     1.2870     0.8650 hc         1 ZWI       0.037700
     50 H122       -10.0260     1.2840    -0.8980 hc         1 ZWI       0.037700
     51 H132       -12.2180     0.4940    -0.0180 hc         1 ZWI       0.033367
     52 H133       -11.4120    -0.8180    -0.9040 hc         1 ZWI       0.033367
     53 H131       -11.4140    -0.8150     0.8750 hc         1 ZWI       0.033367
@<TRIPOS>BOND
     1     1     2 1   
     2     2     3 1   
     3     2     4 1   
     4     2     5 1   
     5     5     6 1   
     6     5    21 1   
     7     5    22 1   
     8     6     7 1   
     9     6    23 1   
    10     6    24 1   
    11     7     8 1   
    12     7    25 1   
    13     7    26 1   
    14     8     9 1   
    15     8    10 1   
    16     8    11 1   
    17     9    27 1   
    18     9    28 1   
    19     9    29 1   
    20    10    30 1   
    21    10    31 1   
    22    10    32 1   
    23    11    12 1   
    24    11    33 1   
    25    11    34 1   
    26    12    13 1   
    27    12    35 1   
    28    12    36 1   
    29    13    14 1   
    30    13    37 1   
    31    13    38 1   
    32    14    15 1   
    33    14    39 1   
    34    14    40 1   
    35    15    16 1   
    36    15    41 1   
    37    15    42 1   
    38    16    17 1   
    39    16    43 1   
    40    16    44 1   
    41    17    18 1   
    42    17    45 1   
    43    17    46 1   
    44    18    19 1   
    45    18    47 1   
    46    18    48 1   
    47    19    20 1   
    48    19    49 1   
    49    19    50 1   
    50    20    51 1   
    51    20    52 1   
    52    20    53 1   
@<TRIPOS>SUBSTRUCTURE
     1 ZWI         1 TEMP              0 ****  ****    0 ROOT
