@<TRIPOS>MOLECULE
ZWK
   47    50     1     0     0
SMALL
abcg2


@<TRIPOS>ATOM
      1 C4           1.0950    15.9900     2.6150 ca         1 ZWK      -0.076000
      2 C5           0.0820    16.1670     5.1870 ca         1 ZWK      -0.115000
      3 C6          -0.8550    22.3070    -0.5880 ca         1 ZWK      -0.151000
      4 C7          -1.4050    21.0000    -2.5360 ca         1 ZWK      -0.178000
      5 C8          -1.4690    22.1410    -4.7350 ca         1 ZWK       0.248900
      6 C10         -1.2850    22.1550    -3.3230 ca         1 ZWK      -0.002000
      7 C13         -1.2100    21.0500    -1.1580 ca         1 ZWK       0.332000
      8 C15         -1.1550    16.3560     1.6120 c          1 ZWK       0.615700
      9 C17         -1.8450    18.6930    -0.9360 c6         1 ZWK       0.184800
     10 C20         -2.2450    16.6360     4.3430 c3         1 ZWK      -0.054800
     11 C1           1.9470    15.8280     3.7010 ca         1 ZWK      -0.117000
     12 C2           1.4360    15.9150     4.9910 ca         1 ZWK      -0.093000
     13 C3          -0.7260    23.4370    -1.3520 ca         1 ZWK      -0.048000
     14 C9          -0.9480    23.3940    -2.7430 ca         1 ZWK      -0.131000
     15 C11         -0.2580    16.2540     2.8140 ca         1 ZWK      -0.141600
     16 C12         -0.7870    16.3450     4.1100 ca         1 ZWK      -0.048300
     17 C14         -0.8590    24.5120    -3.6330 ca         1 ZWK       0.565900
     18 C16         -0.4820    19.7300     0.7870 c6         1 ZWK       0.184800
     19 C18         -1.1180    18.8380     1.8430 c6         1 ZWK       0.092500
     20 C19         -2.4650    17.7840     0.1170 c6         1 ZWK       0.092500
     21 N21         -1.3520    23.2000    -5.4870 nb         1 ZWK      -0.282000
     22 N22         -1.0570    24.4060    -4.9400 nb         1 ZWK      -0.436000
     23 N23         -1.3930    19.9450    -0.3400 nh         1 ZWK      -0.803400
     24 N24         -1.5610    17.5880     1.2410 n          1 ZWK      -0.411800
     25 N25         -0.5140    25.7520    -3.1710 nv         1 ZWK      -1.052900
     26 O26         -1.4970    15.3290     1.0160 o          1 ZWK      -0.595100
     27 H1           1.4800    15.9180     1.6060 ha         1 ZWK       0.122000
     28 H2          -0.3130    16.2260     6.1940 ha         1 ZWK       0.115000
     29 H4          -1.6390    20.0720    -3.0350 ha         1 ZWK       0.122000
     30 H5          -1.7170    21.2140    -5.2400 h4         1 ZWK       0.025100
     31 H6          -2.6080    18.9040    -1.6820 h1         1 ZWK       0.051950
     32 H7          -1.0130    18.1730    -1.4340 h1         1 ZWK       0.051950
     33 H8          -2.8830    16.0380     3.6890 hc         1 ZWK       0.048367
     34 H9          -2.5190    16.4240     5.3770 hc         1 ZWK       0.048367
     35 H10         -2.4750    17.6860     4.1470 hc         1 ZWK       0.048367
     36 H11          2.9990    15.6300     3.5400 ha         1 ZWK       0.119000
     37 H12          2.0880    15.7840     5.8450 ha         1 ZWK       0.116000
     38 H13         -0.4550    24.3630    -0.8630 ha         1 ZWK       0.114000
     39 H14          0.4450    19.2600     0.4290 h1         1 ZWK       0.051950
     40 H15         -0.2200    20.6760     1.2500 h1         1 ZWK       0.051950
     41 H16         -0.3970    18.6380     2.6280 h1         1 ZWK       0.067450
     42 H17         -1.9820    19.3460     2.2810 h1         1 ZWK       0.067450
     43 H18         -3.3880    18.2380     0.4920 h1         1 ZWK       0.067450
     44 H19         -2.6990    16.8170    -0.3160 h1         1 ZWK       0.067450
     45 H20         -0.6590    26.5100    -3.8210 hn         1 ZWK       0.473500
     46 H21         -0.7180    25.9800    -2.2110 hn         1 ZWK       0.473500
     47 H3          -0.7080    22.3890     0.4790 ha         1 ZWK       0.116000
@<TRIPOS>BOND
     1     1    11 ar  
     2     1    15 ar  
     3     1    27 1   
     4     2    12 ar  
     5     2    16 ar  
     6     2    28 1   
     7     3     7 ar  
     8     3    13 ar  
     9     3    47 1   
    10     4     6 ar  
    11     4     7 ar  
    12     4    29 1   
    13     5     6 ar  
    14     5    21 ar  
    15     5    30 1   
    16     6    14 ar  
    17     7    23 1   
    18     8    15 1   
    19     8    24 1   
    20     8    26 2   
    21     9    20 1   
    22     9    23 1   
    23     9    31 1   
    24     9    32 1   
    25    10    16 1   
    26    10    33 1   
    27    10    34 1   
    28    10    35 1   
    29    11    12 ar  
    30    11    36 1   
    31    12    37 1   
    32    13    14 ar  
    33    13    38 1   
    34    14    17 ar  
    35    15    16 ar  
    36    17    22 ar  
    37    17    25 1   
    38    18    19 1   
    39    18    23 1   
    40    18    39 1   
    41    18    40 1   
    42    19    24 1   
    43    19    41 1   
    44    19    42 1   
    45    20    24 1   
    46    20    43 1   
    47    20    44 1   
    48    21    22 ar  
    49    25    45 1   
    50    25    46 1   
@<TRIPOS>SUBSTRUCTURE
     1 ZWK         1 TEMP              0 ****  ****    0 ROOT
