@<TRIPOS>MOLECULE
ZWK
   47    50     1     0     0
SMALL
No Charge or Current Charge


@<TRIPOS>ATOM
      1 C4           1.0870    15.6190     2.5460 ca         1 ZWK      -0.076000
      2 C5           0.2320    16.1660     5.1570 ca         1 ZWK      -0.115000
      3 C6          -1.2820    22.4120    -0.5850 ca         1 ZWK      -0.151000
      4 C7          -1.1610    20.9960    -2.5520 ca         1 ZWK      -0.178000
      5 C8          -0.8620    22.0340    -4.7610 ca         1 ZWK       0.248900
      6 C10         -1.0080    22.1380    -3.3610 ca         1 ZWK      -0.002000
      7 C13         -1.2980    21.1260    -1.1570 ca         1 ZWK       0.332000
      8 C15         -1.0750    16.3810     1.5380 c          1 ZWK       0.615700
      9 C17         -2.0890    18.7370    -0.8380 c6         1 ZWK       0.184800
     10 C20         -2.0700    16.8550     4.4010 c3         1 ZWK      -0.054800
     11 C1           1.9510    15.3910     3.6270 ca         1 ZWK      -0.117000
     12 C2           1.5270    15.6730     4.9330 ca         1 ZWK      -0.093000
     13 C3          -1.1320    23.5590    -1.3840 ca         1 ZWK      -0.048000
     14 C9          -0.9950    23.4260    -2.7820 ca         1 ZWK      -0.131000
     15 C11         -0.2070    16.1450     2.7530 ca         1 ZWK      -0.141600
     16 C12         -0.6490    16.3970     4.0810 ca         1 ZWK      -0.048300
     17 C14         -0.8380    24.5240    -3.6610 ca         1 ZWK       0.565900
     18 C16         -0.4970    19.7570     0.8000 c6         1 ZWK       0.184800
     19 C18         -1.1250    18.8920     1.9290 c6         1 ZWK       0.092500
     20 C19         -2.7020    17.8920     0.3130 c6         1 ZWK       0.092500
     21 N21         -0.7130    23.1330    -5.5430 nb         1 ZWK      -0.282000
     22 N22         -0.7030    24.3670    -4.9920 nb         1 ZWK      -0.436000
     23 N23         -1.4530    19.9910    -0.3270 nh         1 ZWK      -0.803400
     24 N24         -1.7180    17.6300     1.3990 n          1 ZWK      -0.411800
     25 N25         -0.8170    25.8240    -3.2750 nv         1 ZWK      -1.052900
     26 O26         -1.2590    15.4830     0.7250 o          1 ZWK      -0.595100
     27 H1           1.4290    15.4030     1.5350 ha         1 ZWK       0.122000
     28 H2          -0.0930    16.3580     6.1770 ha         1 ZWK       0.115000
     29 H4          -1.1580    20.0130    -3.0110 ha         1 ZWK       0.122000
     30 H5          -0.8630    21.0680    -5.2650 h4         1 ZWK       0.025100
     31 H6          -2.8890    18.9770    -1.5540 h1         1 ZWK       0.051950
     32 H7          -1.3430    18.1270    -1.3680 h1         1 ZWK       0.051950
     33 H8          -2.7980    16.4740     3.6750 hc         1 ZWK       0.048367
     34 H9          -2.3900    16.4930     5.3860 hc         1 ZWK       0.048367
     35 H10         -2.1420    17.9480     4.4180 hc         1 ZWK       0.048367
     36 H11          2.9500    14.9980     3.4520 ha         1 ZWK       0.119000
     37 H12          2.1960    15.4960     5.7730 ha         1 ZWK       0.116000
     38 H13         -1.1220    24.5370    -0.9100 ha         1 ZWK       0.114000
     39 H14          0.4000    19.2440     0.4210 h1         1 ZWK       0.051950
     40 H15         -0.1620    20.7080     1.2380 h1         1 ZWK       0.051950
     41 H16         -0.3540    18.6860     2.6830 h1         1 ZWK       0.067450
     42 H17         -1.9150    19.4740     2.4230 h1         1 ZWK       0.067450
     43 H18         -3.5560    18.4380     0.7370 h1         1 ZWK       0.067450
     44 H19         -3.0960    16.9500    -0.0940 h1         1 ZWK       0.067450
     45 H20         -0.9120    26.5100    -4.0170 hn         1 ZWK       0.473500
     46 H21         -1.2330    26.0650    -2.3830 hn         1 ZWK       0.473500
     47 H3          -1.3990    22.5250     0.4880 ha         1 ZWK       0.116000
@<TRIPOS>BOND
     1     1    11 ar  
     2     1    15 ar  
     3     1    27 1   
     4     2    12 ar  
     5     2    16 ar  
     6     2    28 1   
     7     3     7 ar  
     8     3    13 ar  
     9     3    47 1   
    10     4     6 ar  
    11     4     7 ar  
    12     4    29 1   
    13     5     6 ar  
    14     5    21 ar  
    15     5    30 1   
    16     6    14 ar  
    17     7    23 1   
    18     8    15 1   
    19     8    24 1   
    20     8    26 2   
    21     9    20 1   
    22     9    23 1   
    23     9    31 1   
    24     9    32 1   
    25    10    16 1   
    26    10    33 1   
    27    10    34 1   
    28    10    35 1   
    29    11    12 ar  
    30    11    36 1   
    31    12    37 1   
    32    13    14 ar  
    33    13    38 1   
    34    14    17 ar  
    35    15    16 ar  
    36    17    22 ar  
    37    17    25 1   
    38    18    19 1   
    39    18    23 1   
    40    18    39 1   
    41    18    40 1   
    42    19    24 1   
    43    19    41 1   
    44    19    42 1   
    45    20    24 1   
    46    20    43 1   
    47    20    44 1   
    48    21    22 ar  
    49    25    45 1   
    50    25    46 1   
@<TRIPOS>SUBSTRUCTURE
     1 ZWK         1 TEMP              0 ****  ****    0 ROOT
