@<TRIPOS>MOLECULE
ZWN
   73    77     1     0     0
SMALL
abcg2


@<TRIPOS>ATOM
      1 O2           2.1100     6.6990    18.9180 os         1 ZWN      -0.474000
      2 O3           0.3540     8.7590    19.6590 oh         1 ZWN      -0.719000
      3 C20         11.3840    10.6590    16.5790 ca         1 ZWN      -0.045000
      4 C21         11.8510    11.6450    15.7220 ca         1 ZWN      -0.180500
      5 C22         11.3520    11.7300    14.4250 ca         1 ZWN       0.152100
      6 O11         11.7630    12.6610    13.5440 oh         1 ZWN      -0.530100
      7 C23         10.3850    10.8180    14.0020 ca         1 ZWN      -0.180500
      8 C24          9.9380     9.8340    14.8650 ca         1 ZWN      -0.045000
      9 C19         10.4310     9.7390    16.1650 ca         1 ZWN      -0.133300
     10 C16          9.9820     8.6470    17.0880 c6         1 ZWN       0.237600
     11 C15         10.4330     7.2690    16.6330 c6         1 ZWN      -0.207400
     12 C14          9.8800     6.2070    17.5390 c          1 ZWN       0.614700
     13 O9          10.4720     5.1470    17.7300 o          1 ZWN      -0.577100
     14 O10          8.5530     8.6950    17.1740 os         1 ZWN      -0.335100
     15 C17          7.9540     7.7240    17.8760 ca         1 ZWN       0.261100
     16 C18          6.6790     7.9910    18.3470 ca         1 ZWN      -0.281000
     17 C13          8.5950     6.4990    18.1320 ca         1 ZWN      -0.417600
     18 C12          7.9130     5.5340    18.9150 ca         1 ZWN       0.281100
     19 O8           8.4730     4.3600    19.1870 oh         1 ZWN      -0.539100
     20 C11          6.6410     5.7930    19.3930 ca         1 ZWN      -0.252000
     21 C10          6.0320     7.0110    19.0990 ca         1 ZWN       0.254100
     22 O7           4.7980     7.1640    19.6140 os         1 ZWN      -0.316100
     23 C9           3.9700     8.1910    19.1650 c6         1 ZWN       0.389300
     24 O6           4.3760     9.3710    19.7850 os         1 ZWN      -0.460000
     25 C7           3.6570    10.5100    19.3450 c6         1 ZWN       0.150300
     26 C8           4.3030    11.7290    19.9630 c3         1 ZWN       0.171600
     27 O5           5.6130    11.8490    19.4670 oh         1 ZWN      -0.702000
     28 C6           2.1870    10.3510    19.7470 c6         1 ZWN       0.101300
     29 O4           1.3870    11.3820    19.2190 oh         1 ZWN      -0.721000
     30 C5           1.6460     9.0360    19.1890 c6         1 ZWN       0.149300
     31 C4           2.5390     7.8620    19.5770 c6         1 ZWN       0.161300
     32 C3           1.4480     5.7320    19.6870 c6         1 ZWN       0.365300
     33 O1           2.3120     4.7440    20.1470 os         1 ZWN      -0.453000
     34 C2           2.9110     3.9260    19.1500 c6         1 ZWN       0.140300
     35 C1           3.7620     2.9040    19.8770 c3         1 ZWN      -0.091100
     36 C27          1.8540     3.2600    18.2530 c6         1 ZWN       0.150300
     37 O14          2.4770     2.6130    17.1670 oh         1 ZWN      -0.708000
     38 C26          0.9060     4.3120    17.6970 c6         1 ZWN       0.186300
     39 O13         -0.0890     3.6650    16.9460 oh         1 ZWN      -0.632000
     40 C25          0.3200     5.1410    18.8390 c6         1 ZWN       0.109300
     41 O12         -0.4890     4.3020    19.6270 oh         1 ZWN      -0.693000
     42 H1          -0.2370     9.4490    19.3400 ho         1 ZWN       0.522000
     43 H3          12.5990    12.3490    16.0680 ha         1 ZWN       0.124000
     44 H4          12.4200    13.2420    13.9450 ho         1 ZWN       0.467000
     45 H5           9.9890    10.8830    12.9960 ha         1 ZWN       0.124000
     46 H6           9.1900     9.1340    14.5110 ha         1 ZWN       0.119000
     47 H8          10.0800     7.0670    15.6150 hc         1 ZWN       0.087700
     48 H9          11.5220     7.2190    16.6150 hc         1 ZWN       0.087700
     49 H10          6.2500     8.9650    18.1600 ha         1 ZWN       0.154000
     50 H11          9.3510     4.3350    18.7440 ho         1 ZWN       0.516000
     51 H12          6.1180     5.0510    19.9830 ha         1 ZWN       0.150000
     52 H13          4.0350     8.2830    18.0670 h2         1 ZWN       0.054700
     53 H14          3.7150    10.5920    18.2470 h1         1 ZWN       0.066700
     54 H15          3.6940    12.6050    19.7110 h1         1 ZWN       0.027200
     55 H16          4.2830    11.6260    21.0570 h1         1 ZWN       0.027200
     56 H17          6.0180    12.6210    19.8730 ho         1 ZWN       0.508000
     57 H18          2.1260    10.3180    20.8440 h1         1 ZWN       0.058700
     58 H19          1.3180    12.0950    19.8600 ho         1 ZWN       0.514000
     59 H20          1.6560     9.1140    18.0890 h1         1 ZWN       0.056700
     60 H21          2.5200     7.7350    20.6690 h1         1 ZWN       0.079700
     61 H22          1.0230     6.1890    20.5900 h2         1 ZWN       0.075700
     62 H23          3.5610     4.5340    18.5060 h1         1 ZWN       0.060700
     63 H24          4.4780     3.3920    20.5390 hc         1 ZWN       0.045700
     64 H25          3.1450     2.2340    20.4790 hc         1 ZWN       0.045700
     65 H26          4.3340     2.3010    19.1730 hc         1 ZWN       0.045700
     66 H27          1.2790     2.5470    18.8590 h1         1 ZWN       0.066700
     67 H28          2.7910     1.7530    17.4590 ho         1 ZWN       0.506000
     68 H29          1.4910     4.9950    17.0640 h1         1 ZWN       0.056700
     69 H30         -0.6190     4.3340    16.5010 ho         1 ZWN       0.440000
     70 H31         -0.2630     5.9750    18.4230 h1         1 ZWN       0.048700
     71 H32         -0.9690     4.8460    20.2580 ho         1 ZWN       0.502000
     72 H7          10.3870     8.8340    18.0910 h1         1 ZWN       0.058700
     73 H2          11.7780    10.6100    17.5870 ha         1 ZWN       0.119000
@<TRIPOS>BOND
     1     1    31 1   
     2     1    32 1   
     3     2    30 1   
     4     2    42 1   
     5     3     4 ar  
     6     3     9 ar  
     7     3    73 1   
     8     4     5 ar  
     9     4    43 1   
    10     5     6 1   
    11     5     7 ar  
    12     6    44 1   
    13     7     8 ar  
    14     7    45 1   
    15     8     9 ar  
    16     8    46 1   
    17     9    10 1   
    18    10    11 1   
    19    10    14 1   
    20    10    72 1   
    21    11    12 1   
    22    11    47 1   
    23    11    48 1   
    24    12    13 2   
    25    12    17 1   
    26    14    15 1   
    27    15    16 ar  
    28    15    17 ar  
    29    16    21 ar  
    30    16    49 1   
    31    17    18 ar  
    32    18    19 1   
    33    18    20 ar  
    34    19    50 1   
    35    20    21 ar  
    36    20    51 1   
    37    21    22 1   
    38    22    23 1   
    39    23    24 1   
    40    23    31 1   
    41    23    52 1   
    42    24    25 1   
    43    25    26 1   
    44    25    28 1   
    45    25    53 1   
    46    26    27 1   
    47    26    54 1   
    48    26    55 1   
    49    27    56 1   
    50    28    29 1   
    51    28    30 1   
    52    28    57 1   
    53    29    58 1   
    54    30    31 1   
    55    30    59 1   
    56    31    60 1   
    57    32    33 1   
    58    32    40 1   
    59    32    61 1   
    60    33    34 1   
    61    34    35 1   
    62    34    36 1   
    63    34    62 1   
    64    35    63 1   
    65    35    64 1   
    66    35    65 1   
    67    36    37 1   
    68    36    38 1   
    69    36    66 1   
    70    37    67 1   
    71    38    39 1   
    72    38    40 1   
    73    38    68 1   
    74    39    69 1   
    75    40    41 1   
    76    40    70 1   
    77    41    71 1   
@<TRIPOS>SUBSTRUCTURE
     1 ZWN         1 TEMP              0 ****  ****    0 ROOT
