@<TRIPOS>MOLECULE
ZWN
   73    77     1     0     0
SMALL
No Charge or Current Charge


@<TRIPOS>ATOM
      1 O2           1.9800     6.7000    18.5510 os         1 ZWN      -0.474000
      2 O3           0.2780     8.9430    19.6080 oh         1 ZWN      -0.719000
      3 C20         11.4190    10.8230    16.3270 ca         1 ZWN      -0.045000
      4 C21         11.7900    11.8270    15.4150 ca         1 ZWN      -0.180500
      5 C22         11.2480    11.8360    14.1200 ca         1 ZWN       0.152100
      6 O11         11.6030    12.8060    13.2320 oh         1 ZWN      -0.530100
      7 C23         10.3360    10.8440    13.7360 ca         1 ZWN      -0.180500
      8 C24          9.9620     9.8380    14.6440 ca         1 ZWN      -0.045000
      9 C19         10.5030     9.8220    15.9460 ca         1 ZWN      -0.133300
     10 C16         10.1060     8.7270    16.9420 c6         1 ZWN       0.237600
     11 C15         10.6500     7.3500    16.5510 c6         1 ZWN      -0.207400
     12 C14         10.1700     6.3270    17.5600 c          1 ZWN       0.614700
     13 O9          10.9010     5.4380    17.9770 o          1 ZWN      -0.577100
     14 O10          8.6710     8.6790    17.0300 os         1 ZWN      -0.335100
     15 C17          8.0730     7.6660    17.7420 ca         1 ZWN       0.261100
     16 C18          6.7440     7.8330    18.1400 ca         1 ZWN      -0.281000
     17 C13          8.7710     6.4880    18.0560 ca         1 ZWN      -0.417600
     18 C12          8.1270     5.4960    18.8090 ca         1 ZWN       0.281100
     19 O8           8.7780     4.3550    19.1460 oh         1 ZWN      -0.539100
     20 C11          6.8030     5.6660    19.2180 ca         1 ZWN      -0.252000
     21 C10          6.1010     6.8280    18.8870 ca         1 ZWN       0.254100
     22 O7           4.7920     6.9180    19.3080 os         1 ZWN      -0.316100
     23 C9           3.9860     8.0770    19.0290 c6         1 ZWN       0.389300
     24 O6           4.4760     9.1750    19.8330 os         1 ZWN      -0.460000
     25 C7           3.7770    10.4290    19.6320 c6         1 ZWN       0.150300
     26 C8           4.5200    11.5370    20.4500 c3         1 ZWN       0.171600
     27 O5           5.9130    11.6600    20.1040 oh         1 ZWN      -0.702000
     28 C6           2.2830    10.2550    20.0530 c6         1 ZWN       0.101300
     29 O4           1.5040    11.4560    19.8450 oh         1 ZWN      -0.721000
     30 C5           1.6580     9.0920    19.2290 c6         1 ZWN       0.149300
     31 C4           2.4980     7.7780    19.3840 c6         1 ZWN       0.161300
     32 C3           0.9380     5.8950    19.1410 c6         1 ZWN       0.365300
     33 O1           1.5270     5.0350    20.1450 os         1 ZWN      -0.453000
     34 C2           2.5190     4.1050    19.6420 c6         1 ZWN       0.140300
     35 C1           3.0730     3.3450    20.8730 c3         1 ZWN      -0.091100
     36 C27          1.8870     3.1630    18.5710 c6         1 ZWN       0.150300
     37 O14          2.8630     2.2620    18.0060 oh         1 ZWN      -0.708000
     38 C26          1.2270     4.0210    17.4440 c6         1 ZWN       0.186300
     39 O13          0.5550     3.1690    16.5000 oh         1 ZWN      -0.632000
     40 C25          0.2100     5.0350    18.0470 c6         1 ZWN       0.109300
     41 O12         -0.9350     4.3070    18.5710 oh         1 ZWN      -0.693000
     42 H1          -0.0380     9.8720    19.7230 ho         1 ZWN       0.522000
     43 H3          12.4990    12.5930    15.7220 ha         1 ZWN       0.124000
     44 H4          12.2430    13.4080    13.6690 ho         1 ZWN       0.467000
     45 H5           9.9150    10.8530    12.7330 ha         1 ZWN       0.124000
     46 H6           9.2500     9.0750    14.3360 ha         1 ZWN       0.119000
     47 H8          10.1890     7.0870    15.5910 hc         1 ZWN       0.087700
     48 H9          11.7410     7.3180    16.4510 hc         1 ZWN       0.087700
     49 H10          6.2400     8.7550    17.8730 ha         1 ZWN       0.154000
     50 H11          9.7040     4.4720    18.8190 ho         1 ZWN       0.516000
     51 H12          6.3130     4.8880    19.7940 ha         1 ZWN       0.150000
     52 H13          4.0540     8.3280    17.9600 h2         1 ZWN       0.054700
     53 H14          3.8300    10.7000    18.5670 h1         1 ZWN       0.066700
     54 H15          4.0110    12.4940    20.2790 h1         1 ZWN       0.027200
     55 H16          4.4190    11.2990    21.5180 h1         1 ZWN       0.027200
     56 H17          6.3070    12.3150    20.7260 ho         1 ZWN       0.508000
     57 H18          2.2600     9.9720    21.1170 h1         1 ZWN       0.058700
     58 H19          1.6730    12.0620    20.6060 ho         1 ZWN       0.514000
     59 H20          1.7080     9.3800    18.1680 h1         1 ZWN       0.056700
     60 H21          2.4740     7.4620    20.4370 h1         1 ZWN       0.079700
     61 H22          0.1900     6.5420    19.6180 h2         1 ZWN       0.075700
     62 H23          3.3460     4.6700    19.1880 h1         1 ZWN       0.060700
     63 H24          3.4810     4.0430    21.6130 hc         1 ZWN       0.045700
     64 H25          2.2900     2.7530    21.3610 hc         1 ZWN       0.045700
     65 H26          3.8810     2.6620    20.5850 hc         1 ZWN       0.045700
     66 H27          1.0940     2.5820    19.0660 h1         1 ZWN       0.066700
     67 H28          2.4530     1.9210    17.1750 ho         1 ZWN       0.506000
     68 H29          2.0210     4.5880    16.9340 h1         1 ZWN       0.056700
     69 H30         -0.3590     3.0920    16.8580 ho         1 ZWN       0.440000
     70 H31         -0.1170     5.7150    17.2470 h1         1 ZWN       0.048700
     71 H32         -1.5730     4.9700    18.9270 ho         1 ZWN       0.502000
     72 H7          10.4950     8.9890    17.9380 h1         1 ZWN       0.058700
     73 H2          11.8460    10.8240    17.3280 ha         1 ZWN       0.119000
@<TRIPOS>BOND
     1     1    31 1   
     2     1    32 1   
     3     2    30 1   
     4     2    42 1   
     5     3     4 ar  
     6     3     9 ar  
     7     3    73 1   
     8     4     5 ar  
     9     4    43 1   
    10     5     6 1   
    11     5     7 ar  
    12     6    44 1   
    13     7     8 ar  
    14     7    45 1   
    15     8     9 ar  
    16     8    46 1   
    17     9    10 1   
    18    10    11 1   
    19    10    14 1   
    20    10    72 1   
    21    11    12 1   
    22    11    47 1   
    23    11    48 1   
    24    12    13 2   
    25    12    17 1   
    26    14    15 1   
    27    15    16 ar  
    28    15    17 ar  
    29    16    21 ar  
    30    16    49 1   
    31    17    18 ar  
    32    18    19 1   
    33    18    20 ar  
    34    19    50 1   
    35    20    21 ar  
    36    20    51 1   
    37    21    22 1   
    38    22    23 1   
    39    23    24 1   
    40    23    31 1   
    41    23    52 1   
    42    24    25 1   
    43    25    26 1   
    44    25    28 1   
    45    25    53 1   
    46    26    27 1   
    47    26    54 1   
    48    26    55 1   
    49    27    56 1   
    50    28    29 1   
    51    28    30 1   
    52    28    57 1   
    53    29    58 1   
    54    30    31 1   
    55    30    59 1   
    56    31    60 1   
    57    32    33 1   
    58    32    40 1   
    59    32    61 1   
    60    33    34 1   
    61    34    35 1   
    62    34    36 1   
    63    34    62 1   
    64    35    63 1   
    65    35    64 1   
    66    35    65 1   
    67    36    37 1   
    68    36    38 1   
    69    36    66 1   
    70    37    67 1   
    71    38    39 1   
    72    38    40 1   
    73    38    68 1   
    74    39    69 1   
    75    40    41 1   
    76    40    70 1   
    77    41    71 1   
@<TRIPOS>SUBSTRUCTURE
     1 ZWN         1 TEMP              0 ****  ****    0 ROOT
