@<TRIPOS>MOLECULE
ZWP
   46    49     1     0     0
SMALL
No Charge or Current Charge


@<TRIPOS>ATOM
      1 C1           2.4660    -2.4730    -1.1490 ca         1 ZWP      -0.042000
      2 C10          1.2200     2.1300     0.7790 c3         1 ZWP       0.049400
      3 C11          2.2670     3.0480     1.4720 c3         1 ZWP      -0.086100
      4 C12          0.0500     1.9040     1.7700 c3         1 ZWP      -0.086100
      5 C13          0.7270     2.8740    -0.4580 c2         1 ZWP      -0.206200
      6 C14          1.4720     3.1960    -1.5290 c2         1 ZWP      -0.318000
      7 C15          0.3260    -0.0990    -1.5820 c3         1 ZWP      -0.046500
      8 C16         -1.0720    -0.1330    -0.9800 ca         1 ZWP       0.435300
      9 C18         -2.6210    -1.2700     0.3060 ca         1 ZWP       0.907000
     10 C19         -3.5380    -0.2370     0.1120 ca         1 ZWP      -0.289300
     11 C2           2.3730    -1.2660    -0.4340 ca         1 ZWP      -0.076800
     12 C21         -1.9780     0.9140    -1.2180 ca         1 ZWP      -0.298300
     13 C22         -4.9780    -0.0350     0.6170 c5         1 ZWP      -0.016900
     14 C23         -5.3200     1.3270    -0.0100 c2         1 ZWP      -0.187200
     15 C24         -4.2710     1.7660    -0.7130 c2         1 ZWP      -0.203100
     16 C3           3.2280    -0.9780     0.5880 ca         1 ZWP      -0.046200
     17 C4           4.2440    -1.8640     0.9740 ca         1 ZWP      -0.133000
     18 C5           4.3670    -3.0820     0.2730 ca         1 ZWP      -0.091000
     19 C6           3.4790    -3.3850    -0.7850 ca         1 ZWP      -0.144000
     20 C7           1.4570    -0.1610    -0.5710 cc         1 ZWP      -0.122400
     21 C8           1.8310     0.7710     0.4140 cd         1 ZWP      -0.041300
     22 N17         -1.3940    -1.2200    -0.2420 nb         1 ZWP      -0.755000
     23 N20         -3.2290     0.8530    -0.6450 na         1 ZWP       0.244400
     24 N9           2.9340     0.2490     1.1380 na         1 ZWP      -0.218700
     25 O25         -2.8970    -2.2710     0.9870 o          1 ZWP      -0.687000
     26 H1           1.7810    -2.7070    -1.9590 ha         1 ZWP       0.117000
     27 H2           2.5830     2.6400     2.4400 hc         1 ZWP       0.039533
     28 H3           3.1590     3.1710     0.8450 hc         1 ZWP       0.039533
     29 H4           1.8470     4.0440     1.6560 hc         1 ZWP       0.039533
     30 H5          -0.3980     2.8580     2.0740 hc         1 ZWP       0.039533
     31 H6          -0.7380     1.2900     1.3230 hc         1 ZWP       0.039533
     32 H7           0.3990     1.3900     2.6730 hc         1 ZWP       0.039533
     33 H8          -0.3200     3.1800    -0.4190 ha         1 ZWP       0.169000
     34 H9           1.0520     3.7450    -2.3730 ha         1 ZWP       0.162500
     35 H10          2.5240     2.9180    -1.6010 ha         1 ZWP       0.162500
     36 H11          0.4120    -0.9300    -2.2900 hc         1 ZWP       0.054200
     37 H12          0.4420     0.7940    -2.2040 hc         1 ZWP       0.054200
     38 H13         -1.7300     1.7760    -1.8320 h4         1 ZWP       0.153000
     39 H14         -5.6590    -0.8230     0.2710 hc         1 ZWP       0.111700
     40 H15         -6.2700     1.8600     0.0980 ha         1 ZWP       0.219000
     41 H16         -4.1410     2.6810    -1.2910 h4         1 ZWP       0.235000
     42 H17          4.9190    -1.6210     1.7910 ha         1 ZWP       0.108000
     43 H18          5.1450    -3.7900     0.5490 ha         1 ZWP       0.106000
     44 H19          3.5760    -4.3270    -1.3200 ha         1 ZWP       0.108000
     45 H21          3.4110     0.6940     1.9130 hn         1 ZWP       0.346000
     46 H22         -5.0390    -0.0040     1.7120 hc         1 ZWP       0.111700
@<TRIPOS>BOND
     1     1    11 ar  
     2     1    19 ar  
     3     1    26 1   
     4     2     3 1   
     5     2     4 1   
     6     2     5 1   
     7     2    21 1   
     8     3    27 1   
     9     3    28 1   
    10     3    29 1   
    11     4    30 1   
    12     4    31 1   
    13     4    32 1   
    14     5     6 2   
    15     5    33 1   
    16     6    34 1   
    17     6    35 1   
    18     7     8 1   
    19     7    20 1   
    20     7    36 1   
    21     7    37 1   
    22     8    12 ar  
    23     8    22 ar  
    24     9    10 ar  
    25     9    22 ar  
    26     9    25 1   
    27    10    13 1   
    28    10    23 1   
    29    11    16 ar  
    30    11    20 1   
    31    12    23 2   
    32    12    38 1   
    33    13    14 1   
    34    13    39 1   
    35    13    46 1   
    36    14    15 2   
    37    14    40 1   
    38    15    23 1   
    39    15    41 1   
    40    16    17 ar  
    41    16    24 1   
    42    17    18 ar  
    43    17    42 1   
    44    18    19 ar  
    45    18    43 1   
    46    19    44 1   
    47    20    21 2   
    48    21    24 1   
    49    24    45 1   
@<TRIPOS>SUBSTRUCTURE
     1 ZWP         1 TEMP              0 ****  ****    0 ROOT
