@<TRIPOS>MOLECULE
ZWP
   46    49     1     0     0
SMALL
abcg2


@<TRIPOS>ATOM
      1 C1           1.7110    -2.4280    -1.0550 ca         1 ZWP      -0.042000
      2 C10          1.7240     2.4460     0.5000 c3         1 ZWP       0.049400
      3 C11          2.5600     2.9140     1.6930 c3         1 ZWP      -0.086100
      4 C12          0.2500     2.7210     0.8400 c3         1 ZWP      -0.086100
      5 C13          2.0820     3.1980    -0.7660 c2         1 ZWP      -0.206200
      6 C14          3.0540     4.0890    -0.9160 c2         1 ZWP      -0.318000
      7 C15          0.0250     0.2990    -1.4090 c3         1 ZWP      -0.046500
      8 C16         -1.2830    -0.0440    -0.7390 ca         1 ZWP       0.435300
      9 C18         -2.4800    -1.5170     0.6240 ca         1 ZWP       0.907000
     10 C19         -3.6350    -0.6960     0.3740 ca         1 ZWP      -0.289300
     11 C2           1.9300    -1.1690    -0.4860 ca         1 ZWP      -0.076800
     12 C21         -2.3830     0.7580    -0.9860 ca         1 ZWP      -0.298300
     13 C22         -5.0300    -0.8250     0.8500 c5         1 ZWP      -0.016900
     14 C23         -5.6870     0.3540     0.2160 c2         1 ZWP      -0.187200
     15 C24         -4.7930     1.0310    -0.4990 c2         1 ZWP      -0.203100
     16 C3           3.0430    -0.9820     0.3550 ca         1 ZWP      -0.046200
     17 C4           3.9400    -2.0090     0.6450 ca         1 ZWP      -0.133000
     18 C5           3.7050    -3.2400     0.0640 ca         1 ZWP      -0.091000
     19 C6           2.6010    -3.4480    -0.7810 ca         1 ZWP      -0.144000
     20 C7           1.2410     0.0820    -0.5660 cc         1 ZWP      -0.122400
     21 C8           1.9380     0.9700     0.2230 cd         1 ZWP      -0.041300
     22 N17         -1.3260    -1.1240     0.0240 nb         1 ZWP      -0.755000
     23 N20         -3.5360     0.3770    -0.3990 na         1 ZWP       0.244400
     24 N9           3.0160     0.3170     0.7670 na         1 ZWP      -0.218700
     25 O25         -2.5590    -2.5200     1.3440 o          1 ZWP      -0.687000
     26 H1           0.8550    -2.6030    -1.6950 ha         1 ZWP       0.117000
     27 H2           2.2980     2.3560     2.5920 hc         1 ZWP       0.039533
     28 H3           3.6350     2.8230     1.5310 hc         1 ZWP       0.039533
     29 H4           2.3580     3.9670     1.8910 hc         1 ZWP       0.039533
     30 H5           0.1270     3.7670     1.1250 hc         1 ZWP       0.039533
     31 H6          -0.4210     2.5340     0.0050 hc         1 ZWP       0.039533
     32 H7          -0.0760     2.1000     1.6760 hc         1 ZWP       0.039533
     33 H8           1.4600     2.9690    -1.6280 ha         1 ZWP       0.169000
     34 H9           3.2180     4.5710    -1.8710 ha         1 ZWP       0.162500
     35 H10          3.7200     4.3760    -0.1130 ha         1 ZWP       0.162500
     36 H11          0.1030    -0.3400    -2.2960 hc         1 ZWP       0.054200
     37 H12         -0.0250     1.3160    -1.7990 hc         1 ZWP       0.054200
     38 H13         -2.3910     1.6440    -1.6010 h4         1 ZWP       0.153000
     39 H14         -5.4830    -1.7720     0.5380 hc         1 ZWP       0.111700
     40 H15         -6.7270     0.6120     0.3270 ha         1 ZWP       0.219000
     41 H16         -4.8780     1.9250    -1.0950 h4         1 ZWP       0.235000
     42 H17          4.7890    -1.8490     1.2980 ha         1 ZWP       0.108000
     43 H18          4.3820    -4.0610     0.2650 ha         1 ZWP       0.106000
     44 H19          2.4470    -4.4270    -1.2170 ha         1 ZWP       0.108000
     45 H21          3.6980     0.7370     1.3750 hn         1 ZWP       0.346000
     46 H22         -5.0980    -0.8030     1.9430 hc         1 ZWP       0.111700
@<TRIPOS>BOND
     1     1    11 ar  
     2     1    19 ar  
     3     1    26 1   
     4     2     3 1   
     5     2     4 1   
     6     2     5 1   
     7     2    21 1   
     8     3    27 1   
     9     3    28 1   
    10     3    29 1   
    11     4    30 1   
    12     4    31 1   
    13     4    32 1   
    14     5     6 2   
    15     5    33 1   
    16     6    34 1   
    17     6    35 1   
    18     7     8 1   
    19     7    20 1   
    20     7    36 1   
    21     7    37 1   
    22     8    12 ar  
    23     8    22 ar  
    24     9    10 ar  
    25     9    22 ar  
    26     9    25 1   
    27    10    13 1   
    28    10    23 1   
    29    11    16 ar  
    30    11    20 1   
    31    12    23 2   
    32    12    38 1   
    33    13    14 1   
    34    13    39 1   
    35    13    46 1   
    36    14    15 2   
    37    14    40 1   
    38    15    23 1   
    39    15    41 1   
    40    16    17 ar  
    41    16    24 1   
    42    17    18 ar  
    43    17    42 1   
    44    18    19 ar  
    45    18    43 1   
    46    19    44 1   
    47    20    21 2   
    48    21    24 1   
    49    24    45 1   
@<TRIPOS>SUBSTRUCTURE
     1 ZWP         1 TEMP              0 ****  ****    0 ROOT
