@<TRIPOS>MOLECULE
ZWS
   61    63     1     0     0
SMALL
abcg2


@<TRIPOS>ATOM
      1 O1          21.7840    -6.4590   -22.9910 o          1 ZWS      -0.557000
      2 C11         24.1930    -4.8820   -20.1480 cc         1 ZWS      -0.176400
      3 C12         24.1170    -4.3730   -21.4030 cd         1 ZWS       0.048600
      4 C13         22.4690    -5.9820   -22.0920 c          1 ZWS       0.559200
      5 C14         22.5180    -6.4860   -20.7450 cd         1 ZWS      -0.342200
      6 C15         23.3520    -5.9630   -19.8100 cc         1 ZWS      -0.077000
      7 C1          28.6020    -5.0530   -17.9900 c6         1 ZWS      -0.033200
      8 C2          27.2510    -4.4230   -18.1880 cc         1 ZWS      -0.223200
      9 C3          26.3700    -4.9010   -19.1060 cd         1 ZWS       0.081400
     10 C4          24.6640    -3.2740   -18.4330 c          1 ZWS       0.557200
     11 C6          26.8460    -3.3180   -17.3960 cc         1 ZWS      -0.081000
     12 O2          25.2120    -5.8760   -23.9010 o          1 ZWS      -0.706500
     13 C21         31.1650    -7.8240   -22.5260 c3         1 ZWS       0.121600
     14 C22         31.6690   -10.0590   -22.0830 c3         1 ZWS       0.147900
     15 O4          28.4160    -6.1220   -22.1920 o          1 ZWS      -0.489000
     16 O5          30.1560    -6.4200   -20.8010 os         1 ZWS      -0.457100
     17 C20         31.0750    -6.4580   -21.8920 c3         1 ZWS       0.186600
     18 O6          31.6120    -8.7520   -21.5750 os         1 ZWS      -0.451000
     19 N           28.1000    -6.3780   -19.9530 n          1 ZWS      -0.395800
     20 C18         26.6950    -6.0600   -20.0160 c6         1 ZWS       0.123200
     21 N1          25.1190    -4.3400   -19.2120 n          1 ZWS      -0.166200
     22 C5          25.6230    -2.7360   -17.4940 cd         1 ZWS      -0.222400
     23 C7          25.2140    -1.5700   -16.6280 c3         1 ZWS      -0.005500
     24 C10         26.2610    -0.4570   -16.6340 c3         1 ZWS      -0.083100
     25 C8          24.9130    -2.0170   -15.1920 c3         1 ZWS      -0.064400
     26 C9          23.8100    -3.0600   -15.0790 c3         1 ZWS      -0.087100
     27 C           28.6320    -6.4400   -18.6030 c6         1 ZWS       0.107000
     28 N2          23.2730    -4.8690   -22.3280 n          1 ZWS      -0.194000
     29 O3          24.4430    -4.8350   -25.7290 o          1 ZWS      -0.706500
     30 H1          24.7330    -3.5400   -21.7130 h4         1 ZWS       0.209000
     31 H2          21.8770    -7.3250   -20.5100 ha         1 ZWS       0.191000
     32 H3          23.3840    -6.3760   -18.8090 ha         1 ZWS       0.170000
     33 H4          23.6320    -3.3090   -23.6390 h1         1 ZWS       0.052700
     34 H5          22.4000    -4.4370   -24.1690 h1         1 ZWS       0.052700
     35 H6          28.8240    -5.1170   -16.9220 hc         1 ZWS       0.046200
     36 H7          29.3860    -4.4310   -18.4340 hc         1 ZWS       0.046200
     37 H8          27.5600    -2.9340   -16.6730 ha         1 ZWS       0.171000
     38 H10         30.1920    -8.1200   -22.9430 h1         1 ZWS       0.042200
     39 H11         31.8620    -7.7510   -23.3740 h1         1 ZWS       0.042200
     40 H12         32.0190   -10.7150   -21.2870 h1         1 ZWS       0.025700
     41 H13         30.6860   -10.4140   -22.4170 h1         1 ZWS       0.025700
     42 H14         32.3610   -10.1440   -22.9290 h1         1 ZWS       0.025700
     43 H15         32.0350    -6.1780   -21.4600 h1         1 ZWS       0.065700
     44 H16         30.8190    -5.7180   -22.6520 h1         1 ZWS       0.065700
     45 H17         26.4240    -5.8360   -21.0460 h1         1 ZWS       0.107200
     46 H18         26.1020    -6.9340   -19.7200 h1         1 ZWS       0.107200
     47 H19         24.2910    -1.1560   -17.0430 hc         1 ZWS       0.074700
     48 H20         25.8970     0.4070   -16.0750 hc         1 ZWS       0.029367
     49 H21         27.1950    -0.7740   -16.1660 hc         1 ZWS       0.029367
     50 H22         26.4890    -0.1280   -17.6480 hc         1 ZWS       0.029367
     51 H23         25.8330    -2.4010   -14.7400 hc         1 ZWS       0.027200
     52 H24         24.6340    -1.1330   -14.6100 hc         1 ZWS       0.027200
     53 H25         23.6060    -3.2990   -14.0350 hc         1 ZWS       0.034033
     54 H26         22.8810    -2.7030   -15.5250 hc         1 ZWS       0.034033
     55 H27         24.0820    -3.9900   -15.5790 hc         1 ZWS       0.034033
     56 H28         27.9930    -7.1150   -18.0280 h1         1 ZWS       0.058200
     57 H29         29.6320    -6.8630   -18.5970 h1         1 ZWS       0.058200
     58 C16         23.3730    -4.3690   -23.6880 c3         1 ZWS      -0.091000
     59 C19         28.8570    -6.2870   -21.0730 c          1 ZWS       0.629100
     60 O           23.5180    -2.8640   -18.5830 o          1 ZWS      -0.555000
     61 C17         24.4500    -5.1150   -24.5190 c          1 ZWS       0.720000
@<TRIPOS>BOND
     1     1     4 2   
     2     2     3 2   
     3     2     6 1   
     4     2    21 1   
     5     3    28 1   
     6     3    30 1   
     7     4     5 1   
     8     4    28 1   
     9     5     6 2   
    10     5    31 1   
    11     6    32 1   
    12     7     8 1   
    13     7    27 1   
    14     7    35 1   
    15     7    36 1   
    16     8     9 2   
    17     8    11 1   
    18     9    20 1   
    19     9    21 1   
    20    10    21 1   
    21    10    22 1   
    22    10    60 2   
    23    11    22 2   
    24    11    37 1   
    25    12    61 1   
    26    13    17 1   
    27    13    18 1   
    28    13    38 1   
    29    13    39 1   
    30    14    18 1   
    31    14    40 1   
    32    14    41 1   
    33    14    42 1   
    34    15    59 2   
    35    16    17 1   
    36    16    59 1   
    37    17    43 1   
    38    17    44 1   
    39    19    20 1   
    40    19    27 1   
    41    19    59 1   
    42    20    45 1   
    43    20    46 1   
    44    22    23 1   
    45    23    24 1   
    46    23    25 1   
    47    23    47 1   
    48    24    48 1   
    49    24    49 1   
    50    24    50 1   
    51    25    26 1   
    52    25    51 1   
    53    25    52 1   
    54    26    53 1   
    55    26    54 1   
    56    26    55 1   
    57    27    56 1   
    58    27    57 1   
    59    28    58 1   
    60    29    61 1   
    61    33    58 1   
    62    34    58 1   
    63    58    61 1   
@<TRIPOS>SUBSTRUCTURE
     1 ZWS         1 TEMP              0 ****  ****    0 ROOT
