@<TRIPOS>MOLECULE
ZWS
   61    63     1     0     0
SMALL
No Charge or Current Charge


@<TRIPOS>ATOM
      1 O1          21.8130    -6.5840   -23.1380 o          1 ZWS      -0.557000
      2 C11         24.2920    -4.9120   -20.3520 cc         1 ZWS      -0.176400
      3 C12         23.8590    -4.1820   -21.4420 cd         1 ZWS       0.048600
      4 C13         22.5500    -6.0670   -22.3070 c          1 ZWS       0.559200
      5 C14         23.0080    -6.8070   -21.1150 cd         1 ZWS      -0.342200
      6 C15         23.8380    -6.2590   -20.1640 cc         1 ZWS      -0.077000
      7 C1          28.5780    -5.0580   -17.7900 c6         1 ZWS      -0.033200
      8 C2          27.2050    -4.4860   -18.0920 cc         1 ZWS      -0.223200
      9 C3          26.3890    -4.9540   -19.1160 cd         1 ZWS       0.081400
     10 C4          24.6800    -3.2410   -18.6150 c          1 ZWS       0.557200
     11 C6          26.7870    -3.3810   -17.2900 cc         1 ZWS      -0.081000
     12 O2          24.5090    -4.3470   -24.9070 o          1 ZWS      -0.706500
     13 C21         31.4550    -8.0660   -22.3050 c3         1 ZWS       0.121600
     14 C22         31.7850   -10.4160   -21.8220 c3         1 ZWS       0.147900
     15 O4          28.8450    -6.2650   -22.1540 o          1 ZWS      -0.489000
     16 O5          30.5330    -6.5230   -20.6230 os         1 ZWS      -0.457100
     17 C20         31.5450    -6.6630   -21.6480 c3         1 ZWS       0.186600
     18 O6          31.8340    -9.0650   -21.3360 os         1 ZWS      -0.451000
     19 N           28.3530    -6.3230   -19.8920 n          1 ZWS      -0.395800
     20 C18         26.8950    -6.0730   -20.0420 c6         1 ZWS       0.123200
     21 N1          25.1260    -4.3770   -19.3530 n          1 ZWS      -0.166200
     22 C5          25.5850    -2.7540   -17.5260 cd         1 ZWS      -0.222400
     23 C7          25.1170    -1.5610   -16.6960 c3         1 ZWS      -0.005500
     24 C10         26.0900    -0.3700   -16.8420 c3         1 ZWS      -0.083100
     25 C8          24.9040    -1.9410   -15.2070 c3         1 ZWS      -0.064400
     26 C9          23.8710    -3.0680   -14.9930 c3         1 ZWS      -0.087100
     27 C           28.7820    -6.4180   -18.4800 c6         1 ZWS       0.107000
     28 N2          23.0120    -4.7310   -22.4060 n          1 ZWS      -0.194000
     29 O3          22.5930    -4.4630   -25.8860 o          1 ZWS      -0.706500
     30 H1          24.1430    -3.1520   -21.6350 h4         1 ZWS       0.209000
     31 H2          22.6340    -7.8210   -21.0340 ha         1 ZWS       0.191000
     32 H3          24.1340    -6.8230   -19.2820 ha         1 ZWS       0.170000
     33 H4          22.7880    -2.8490   -23.3770 h1         1 ZWS       0.052700
     34 H5          21.5050    -4.0180   -23.7110 h1         1 ZWS       0.052700
     35 H6          28.7320    -5.1760   -16.7090 hc         1 ZWS       0.046200
     36 H7          29.3550    -4.3630   -18.1370 hc         1 ZWS       0.046200
     37 H8          27.4460    -3.0300   -16.4990 ha         1 ZWS       0.171000
     38 H10         30.4390    -8.2470   -22.6790 h1         1 ZWS       0.042200
     39 H11         32.1380    -8.0930   -23.1650 h1         1 ZWS       0.042200
     40 H12         32.0860   -11.1160   -21.0320 h1         1 ZWS       0.025700
     41 H13         30.7690   -10.6790   -22.1430 h1         1 ZWS       0.025700
     42 H14         32.4650   -10.5490   -22.6740 h1         1 ZWS       0.025700
     43 H15         32.5450    -6.5460   -21.2110 h1         1 ZWS       0.065700
     44 H16         31.4320    -5.8870   -22.4170 h1         1 ZWS       0.065700
     45 H17         26.6640    -5.8140   -21.0850 h1         1 ZWS       0.107200
     46 H18         26.3660    -7.0090   -19.8210 h1         1 ZWS       0.107200
     47 H19         24.1480    -1.1930   -17.0540 hc         1 ZWS       0.074700
     48 H20         25.7080     0.5100   -16.3110 hc         1 ZWS       0.029367
     49 H21         27.0790    -0.6110   -16.4340 hc         1 ZWS       0.029367
     50 H22         26.2110    -0.1010   -17.8990 hc         1 ZWS       0.029367
     51 H23         25.8590    -2.2430   -14.7600 hc         1 ZWS       0.027200
     52 H24         24.5680    -1.0540   -14.6560 hc         1 ZWS       0.027200
     53 H25         23.7280    -3.2540   -13.9220 hc         1 ZWS       0.034033
     54 H26         22.9020    -2.7940   -15.4260 hc         1 ZWS       0.034033
     55 H27         24.2070    -4.0030   -15.4570 hc         1 ZWS       0.034033
     56 H28         28.1670    -7.1760   -17.9730 h1         1 ZWS       0.058200
     57 H29         29.8290    -6.7370   -18.3810 h1         1 ZWS       0.058200
     58 C16         22.5880    -3.9090   -23.5740 c3         1 ZWS      -0.091000
     59 C19         29.2240    -6.3750   -20.9970 c          1 ZWS       0.629100
     60 O           23.5990    -2.7100   -18.8550 o          1 ZWS      -0.555000
     61 C17         23.2880    -4.2770   -24.8980 c          1 ZWS       0.720000
@<TRIPOS>BOND
     1     1     4 2   
     2     2     3 2   
     3     2     6 1   
     4     2    21 1   
     5     3    28 1   
     6     3    30 1   
     7     4     5 1   
     8     4    28 1   
     9     5     6 2   
    10     5    31 1   
    11     6    32 1   
    12     7     8 1   
    13     7    27 1   
    14     7    35 1   
    15     7    36 1   
    16     8     9 2   
    17     8    11 1   
    18     9    20 1   
    19     9    21 1   
    20    10    21 1   
    21    10    22 1   
    22    10    60 2   
    23    11    22 2   
    24    11    37 1   
    25    12    61 1   
    26    13    17 1   
    27    13    18 1   
    28    13    38 1   
    29    13    39 1   
    30    14    18 1   
    31    14    40 1   
    32    14    41 1   
    33    14    42 1   
    34    15    59 2   
    35    16    17 1   
    36    16    59 1   
    37    17    43 1   
    38    17    44 1   
    39    19    20 1   
    40    19    27 1   
    41    19    59 1   
    42    20    45 1   
    43    20    46 1   
    44    22    23 1   
    45    23    24 1   
    46    23    25 1   
    47    23    47 1   
    48    24    48 1   
    49    24    49 1   
    50    24    50 1   
    51    25    26 1   
    52    25    51 1   
    53    25    52 1   
    54    26    53 1   
    55    26    54 1   
    56    26    55 1   
    57    27    56 1   
    58    27    57 1   
    59    28    58 1   
    60    29    61 1   
    61    33    58 1   
    62    34    58 1   
    63    58    61 1   
@<TRIPOS>SUBSTRUCTURE
     1 ZWS         1 TEMP              0 ****  ****    0 ROOT
