@<TRIPOS>MOLECULE
ZWY
   52    55     1     0     0
SMALL
No Charge or Current Charge


@<TRIPOS>ATOM
      1 C01        191.7220   162.2140   162.6710 c3         1 ZWY      -0.076100
      2 C02        191.5130   160.9760   163.6120 c5         1 ZWY      -0.153000
      3 C03        191.1730   159.7240   162.7520 c6         1 ZWY      -0.051400
      4 C04        189.7570   159.8410   162.1150 c6         1 ZWY      -0.072400
      5 C05        188.6180   160.1290   163.1650 c6         1 ZWY      -0.048700
      6 C06        188.9770   161.3280   164.1110 c6         1 ZWY      -0.041700
      7 C07        190.4050   161.1300   164.6950 c5         1 ZWY      -0.061700
      8 C08        190.9870   162.2120   165.6550 c5         1 ZWY      -0.066400
      9 C09        192.5220   161.8940   165.6330 c5         1 ZWY      -0.190400
     10 C10        192.7370   160.8270   164.5400 c          1 ZWY       0.577100
     11 C12        187.9350   161.4430   165.2540 c6         1 ZWY      -0.028200
     12 C13        186.5050   161.2210   164.7940 c2         1 ZWY      -0.252200
     13 C14        186.1540   160.7120   163.5990 c2         1 ZWY      -0.082400
     14 C15        187.1800   160.3010   162.5170 c6         1 ZWY      -0.003800
     15 C16        186.7510   158.9360   161.8710 c6         1 ZWY      -0.062400
     16 C17        185.2570   158.8680   161.4730 c6         1 ZWY      -0.108400
     17 C18        184.3460   159.1360   162.6910 c6         1 ZWY       0.232300
     18 C19        184.6740   160.5460   163.2350 c6         1 ZWY      -0.044200
     19 C25        187.1610   161.4340   161.4310 c3         1 ZWY      -0.077100
     20 O11        193.5190   159.8860   164.5930 o          1 ZWY      -0.527100
     21 O20        182.9720   159.0920   162.2670 os         1 ZWY      -0.620700
     22 O22        180.6690   158.2600   162.3660 o          1 ZWY      -0.718867
     23 O23        182.5640   156.7200   162.7510 o          1 ZWY      -0.718867
     24 O24        182.0140   158.4420   164.4320 o          1 ZWY      -0.718867
     25 S21        181.9660   158.0360   163.0200 s6         1 ZWY       1.521300
     26 H1         192.0020   163.1220   163.2160 hc         1 ZWY       0.039367
     27 H2         192.5240   162.0210   161.9480 hc         1 ZWY       0.039367
     28 H3         190.8220   162.4630   162.0980 hc         1 ZWY       0.039367
     29 H4         191.2060   158.8220   163.3800 hc         1 ZWY       0.046700
     30 H5         191.9290   159.5780   161.9690 hc         1 ZWY       0.046700
     31 H6         189.7820   160.6200   161.3450 hc         1 ZWY       0.043700
     32 H7         189.5480   158.9050   161.5820 hc         1 ZWY       0.043700
     33 H8         188.5720   159.2410   163.8120 hc         1 ZWY       0.048700
     34 H9         188.9630   162.2650   163.5400 hc         1 ZWY       0.051700
     35 H10        190.3330   160.1900   165.2600 hc         1 ZWY       0.047700
     36 H11        190.7810   163.2260   165.2930 hc         1 ZWY       0.048200
     37 H12        190.5630   162.1390   166.6630 hc         1 ZWY       0.048200
     38 H13        192.9340   161.5510   166.5880 hc         1 ZWY       0.066700
     39 H14        193.0580   162.8000   165.3300 hc         1 ZWY       0.066700
     40 H15        188.1550   160.7110   166.0440 hc         1 ZWY       0.036200
     41 H16        188.0170   162.4330   165.7230 hc         1 ZWY       0.036200
     42 H17        185.7400   161.5080   165.5170 ha         1 ZWY       0.172000
     43 H18        186.9550   158.1160   162.5740 hc         1 ZWY       0.035700
     44 H19        187.3580   158.7280   160.9800 hc         1 ZWY       0.035700
     45 H20        185.0380   159.5820   160.6680 hc         1 ZWY       0.065700
     46 H21        185.0360   157.8710   161.0680 hc         1 ZWY       0.065700
     47 H22        184.5450   158.3850   163.4720 h1         1 ZWY       0.057700
     48 H23        184.3910   161.3010   162.4900 hc         1 ZWY       0.057200
     49 H24        184.0440   160.7440   164.1120 hc         1 ZWY       0.057200
     50 H25        187.5110   162.3920   161.8310 hc         1 ZWY       0.032700
     51 H26        187.7850   161.1860   160.5660 hc         1 ZWY       0.032700
     52 H27        186.1560   161.6120   161.0370 hc         1 ZWY       0.032700
@<TRIPOS>BOND
     1     1     2 1   
     2     1    26 1   
     3     1    27 1   
     4     1    28 1   
     5     2     3 1   
     6     2     7 1   
     7     2    10 1   
     8     3     4 1   
     9     3    29 1   
    10     3    30 1   
    11     4     5 1   
    12     4    31 1   
    13     4    32 1   
    14     5     6 1   
    15     5    14 1   
    16     5    33 1   
    17     6     7 1   
    18     6    11 1   
    19     6    34 1   
    20     7     8 1   
    21     7    35 1   
    22     8     9 1   
    23     8    36 1   
    24     8    37 1   
    25     9    10 1   
    26     9    38 1   
    27     9    39 1   
    28    10    20 2   
    29    11    12 1   
    30    11    40 1   
    31    11    41 1   
    32    12    13 2   
    33    12    42 1   
    34    13    14 1   
    35    13    18 1   
    36    14    15 1   
    37    14    19 1   
    38    15    16 1   
    39    15    43 1   
    40    15    44 1   
    41    16    17 1   
    42    16    45 1   
    43    16    46 1   
    44    17    18 1   
    45    17    21 1   
    46    17    47 1   
    47    18    48 1   
    48    18    49 1   
    49    19    50 1   
    50    19    51 1   
    51    19    52 1   
    52    21    25 1   
    53    22    25 1   
    54    23    25 1   
    55    24    25 1   
@<TRIPOS>SUBSTRUCTURE
     1 ZWY         1 TEMP              0 ****  ****    0 ROOT
