@<TRIPOS>MOLECULE
ZWY
   52    55     1     0     0
SMALL
abcg2


@<TRIPOS>ATOM
      1 C01        191.6050   162.0850   162.5470 c3         1 ZWY      -0.076100
      2 C02        191.4370   160.9470   163.5810 c5         1 ZWY      -0.153000
      3 C03        191.0840   159.6290   162.9040 c6         1 ZWY      -0.051400
      4 C04        189.6740   159.7130   162.3040 c6         1 ZWY      -0.072400
      5 C05        188.5900   160.1540   163.3070 c6         1 ZWY      -0.048700
      6 C06        188.9790   161.4210   164.1010 c6         1 ZWY      -0.041700
      7 C07        190.3830   161.2480   164.6610 c5         1 ZWY      -0.061700
      8 C08        191.0230   162.3480   165.5190 c5         1 ZWY      -0.066400
      9 C09        192.4910   161.8880   165.6070 c5         1 ZWY      -0.190400
     10 C10        192.7130   160.9770   164.4040 c          1 ZWY       0.577100
     11 C12        187.9700   161.6630   165.2230 c6         1 ZWY      -0.028200
     12 C13        186.5540   161.4360   164.7970 c2         1 ZWY      -0.252200
     13 C14        186.1830   160.8450   163.6610 c2         1 ZWY      -0.082400
     14 C15        187.1820   160.2800   162.6550 c6         1 ZWY      -0.003800
     15 C16        186.7070   158.8650   162.2430 c6         1 ZWY      -0.062400
     16 C17        185.2420   158.7800   161.8170 c6         1 ZWY      -0.108400
     17 C18        184.3490   159.2860   162.9350 c6         1 ZWY       0.232300
     18 C19        184.7200   160.7140   163.3110 c6         1 ZWY      -0.044200
     19 C25        187.2100   161.2020   161.4170 c3         1 ZWY      -0.077100
     20 O11        193.7410   160.3800   164.1560 o          1 ZWY      -0.527100
     21 O20        182.9450   159.3240   162.5690 os         1 ZWY      -0.620700
     22 O22        180.7460   158.3820   162.5940 o          1 ZWY      -0.718867
     23 O23        182.3640   157.5010   160.9980 o          1 ZWY      -0.718867
     24 O24        182.6250   157.0100   163.3740 o          1 ZWY      -0.718867
     25 S21        182.1160   157.9380   162.3690 s6         1 ZWY       1.521300
     26 H1         191.9040   163.0240   163.0150 hc         1 ZWY       0.039367
     27 H2         192.3760   161.8050   161.8280 hc         1 ZWY       0.039367
     28 H3         190.6790   162.2650   162.0060 hc         1 ZWY       0.039367
     29 H4         191.1240   158.8280   163.6480 hc         1 ZWY       0.046700
     30 H5         191.8080   159.3820   162.1230 hc         1 ZWY       0.046700
     31 H6         189.6970   160.4020   161.4590 hc         1 ZWY       0.043700
     32 H7         189.4120   158.7370   161.8930 hc         1 ZWY       0.043700
     33 H8         188.5050   159.3550   164.0560 hc         1 ZWY       0.048700
     34 H9         188.9620   162.2850   163.4300 hc         1 ZWY       0.051700
     35 H10        190.3470   160.3500   165.2960 hc         1 ZWY       0.047700
     36 H11        190.9440   163.3210   165.0310 hc         1 ZWY       0.048200
     37 H12        190.5600   162.4340   166.5010 hc         1 ZWY       0.048200
     38 H13        192.6690   161.2890   166.5050 hc         1 ZWY       0.066700
     39 H14        193.2260   162.6950   165.6120 hc         1 ZWY       0.066700
     40 H15        188.2020   161.0020   166.0700 hc         1 ZWY       0.036200
     41 H16        188.0770   162.6810   165.6100 hc         1 ZWY       0.036200
     42 H17        185.7810   161.7890   165.4750 ha         1 ZWY       0.172000
     43 H18        186.8620   158.1930   163.0930 hc         1 ZWY       0.035700
     44 H19        187.3340   158.4950   161.4310 hc         1 ZWY       0.035700
     45 H20        185.0580   159.3760   160.9190 hc         1 ZWY       0.065700
     46 H21        184.9930   157.7480   161.5730 hc         1 ZWY       0.065700
     47 H22        184.4470   158.6350   163.8080 h1         1 ZWY       0.057700
     48 H23        184.4790   161.3520   162.4530 hc         1 ZWY       0.057200
     49 H24        184.1060   161.0500   164.1480 hc         1 ZWY       0.057200
     50 H25        187.6810   162.1560   161.6550 hc         1 ZWY       0.032700
     51 H26        187.7580   160.7430   160.5940 hc         1 ZWY       0.032700
     52 H27        186.2020   161.4140   161.0610 hc         1 ZWY       0.032700
@<TRIPOS>BOND
     1     1     2 1   
     2     1    26 1   
     3     1    27 1   
     4     1    28 1   
     5     2     3 1   
     6     2     7 1   
     7     2    10 1   
     8     3     4 1   
     9     3    29 1   
    10     3    30 1   
    11     4     5 1   
    12     4    31 1   
    13     4    32 1   
    14     5     6 1   
    15     5    14 1   
    16     5    33 1   
    17     6     7 1   
    18     6    11 1   
    19     6    34 1   
    20     7     8 1   
    21     7    35 1   
    22     8     9 1   
    23     8    36 1   
    24     8    37 1   
    25     9    10 1   
    26     9    38 1   
    27     9    39 1   
    28    10    20 2   
    29    11    12 1   
    30    11    40 1   
    31    11    41 1   
    32    12    13 2   
    33    12    42 1   
    34    13    14 1   
    35    13    18 1   
    36    14    15 1   
    37    14    19 1   
    38    15    16 1   
    39    15    43 1   
    40    15    44 1   
    41    16    17 1   
    42    16    45 1   
    43    16    46 1   
    44    17    18 1   
    45    17    21 1   
    46    17    47 1   
    47    18    48 1   
    48    18    49 1   
    49    19    50 1   
    50    19    51 1   
    51    19    52 1   
    52    21    25 1   
    53    22    25 1   
    54    23    25 1   
    55    24    25 1   
@<TRIPOS>SUBSTRUCTURE
     1 ZWY         1 TEMP              0 ****  ****    0 ROOT
