@<TRIPOS>MOLECULE
ZWZ
   28    28     1     0     0
SMALL
No Charge or Current Charge


@<TRIPOS>ATOM
      1 OAE         -0.5790     2.5370     0.1940 oh         1 ZWZ      -0.721000
      2 CAK         -0.1520     1.2120    -0.1680 c6         1 ZWZ       0.142300
      3 CAJ          1.2410     0.9440     0.4790 c6         1 ZWZ       0.088300
      4 OAD          2.1980     1.9220     0.0170 oh         1 ZWZ      -0.675000
      5 CAI          1.7330    -0.4980     0.1570 c6         1 ZWZ       0.108300
      6 OAC          2.0250    -0.5960    -1.2510 oh         1 ZWZ      -0.715000
      7 CAH          0.6470    -1.5320     0.6170 c6         1 ZWZ       0.182500
      8 CAA          1.0610    -3.0000     0.3360 c3         1 ZWZ      -0.080100
      9 NAG         -0.6670    -1.2660    -0.0210 n7         1 ZWZ      -0.839400
     10 CAL         -1.1880     0.1120     0.2570 c6         1 ZWZ       0.178500
     11 CAF         -2.5780     0.3370    -0.4510 c3         1 ZWZ       0.154800
     12 NAB         -3.6440    -0.6530    -0.1300 n8         1 ZWZ      -0.976200
     13 HOAE         0.2490     3.0760     0.1540 ho         1 ZWZ       0.518000
     14 HAK         -0.0370     1.1560    -1.2610 h1         1 ZWZ       0.049700
     15 HAJ          1.1280     1.0230     1.5720 h1         1 ZWZ       0.051700
     16 HOAD         2.9660     1.8940     0.6330 ho         1 ZWZ       0.451000
     17 HAI          2.6490    -0.6860     0.7360 h1         1 ZWZ       0.034700
     18 HOAC         2.3660     0.2980    -1.4950 ho         1 ZWZ       0.514000
     19 HAH          0.5290    -1.4350     1.7080 h1         1 ZWZ       0.055700
     20 HAA          2.0190    -3.2340     0.8150 hc         1 ZWZ       0.044033
     21 HAAA         0.3150    -3.7010     0.7300 hc         1 ZWZ       0.044033
     22 HAAB         1.1680    -3.1940    -0.7380 hc         1 ZWZ       0.044033
     23 HNAG        -0.5350    -1.3570    -1.0350 hn         1 ZWZ       0.428000
     24 HAL         -1.3550     0.2050     1.3410 h1         1 ZWZ       0.063700
     25 HAF         -2.9490     1.3320    -0.1690 h1         1 ZWZ       0.037700
     26 HAFA        -2.4250     0.3370    -1.5400 h1         1 ZWZ       0.037700
     27 HNAB        -3.7980    -0.6600     0.8840 hn         1 ZWZ       0.388500
     28 HNAA        -4.5370    -0.3230    -0.5140 hn         1 ZWZ       0.388500
@<TRIPOS>BOND
     1     1     2 1   
     2     1    13 1   
     3     2     3 1   
     4     2    10 1   
     5     2    14 1   
     6     3     4 1   
     7     3     5 1   
     8     3    15 1   
     9     4    16 1   
    10     5     6 1   
    11     5     7 1   
    12     5    17 1   
    13     6    18 1   
    14     7     8 1   
    15     7     9 1   
    16     7    19 1   
    17     8    20 1   
    18     8    21 1   
    19     8    22 1   
    20     9    10 1   
    21     9    23 1   
    22    10    11 1   
    23    10    24 1   
    24    11    12 1   
    25    11    25 1   
    26    11    26 1   
    27    12    27 1   
    28    12    28 1   
@<TRIPOS>SUBSTRUCTURE
     1 ZWZ         1 TEMP              0 ****  ****    0 ROOT
