@<TRIPOS>MOLECULE
ZWZ
   28    28     1     0     0
SMALL
abcg2


@<TRIPOS>ATOM
      1 OAE         -0.6370     2.4530     0.2590 oh         1 ZWZ      -0.721000
      2 CAK         -0.1470     1.1950    -0.1480 c6         1 ZWZ       0.142300
      3 CAJ          1.2020     0.9070     0.5020 c6         1 ZWZ       0.088300
      4 OAD          2.1090     1.8920     0.0360 oh         1 ZWZ      -0.675000
      5 CAI          1.6990    -0.5000     0.1830 c6         1 ZWZ       0.108300
      6 OAC          1.9870    -0.6400    -1.1890 oh         1 ZWZ      -0.715000
      7 CAH          0.6220    -1.5120     0.5740 c6         1 ZWZ       0.182500
      8 CAA          1.0340    -2.9440     0.2720 c3         1 ZWZ      -0.080100
      9 NAG         -0.6670    -1.2240    -0.0320 n7         1 ZWZ      -0.839400
     10 CAL         -1.1620     0.1120     0.2430 c6         1 ZWZ       0.178500
     11 CAF         -2.5010     0.3350    -0.4520 c3         1 ZWZ       0.154800
     12 NAB         -3.5070    -0.6180    -0.0090 n8         1 ZWZ      -0.976200
     13 HOAE         0.0330     3.1130     0.0510 ho         1 ZWZ       0.518000
     14 HAK         -0.0220     1.1620    -1.2420 h1         1 ZWZ       0.049700
     15 HAJ          1.0740     0.9830     1.5920 h1         1 ZWZ       0.051700
     16 HOAD         2.8570     1.9360     0.6390 ho         1 ZWZ       0.451000
     17 HAI          2.5980    -0.6950     0.7910 h1         1 ZWZ       0.034700
     18 HOAC         2.5100     0.1240    -1.4540 ho         1 ZWZ       0.514000
     19 HAH          0.4940    -1.4170     1.6600 h1         1 ZWZ       0.055700
     20 HAA          1.9840    -3.1850     0.7490 hc         1 ZWZ       0.044033
     21 HAAA         0.2840    -3.6420     0.6450 hc         1 ZWZ       0.044033
     22 HAAB         1.1470    -3.1120    -0.8000 hc         1 ZWZ       0.044033
     23 HNAG        -0.6110    -1.3650    -1.0360 hn         1 ZWZ       0.428000
     24 HAL         -1.3180     0.1880     1.3300 h1         1 ZWZ       0.063700
     25 HAF         -2.7990     1.3790    -0.3040 h1         1 ZWZ       0.037700
     26 HAFA        -2.3550     0.2070    -1.5310 h1         1 ZWZ       0.037700
     27 HNAB        -3.6680    -0.4900     0.9830 hn         1 ZWZ       0.388500
     28 HNAA        -4.3880    -0.3900    -0.4530 hn         1 ZWZ       0.388500
@<TRIPOS>BOND
     1     1     2 1   
     2     1    13 1   
     3     2     3 1   
     4     2    10 1   
     5     2    14 1   
     6     3     4 1   
     7     3     5 1   
     8     3    15 1   
     9     4    16 1   
    10     5     6 1   
    11     5     7 1   
    12     5    17 1   
    13     6    18 1   
    14     7     8 1   
    15     7     9 1   
    16     7    19 1   
    17     8    20 1   
    18     8    21 1   
    19     8    22 1   
    20     9    10 1   
    21     9    23 1   
    22    10    11 1   
    23    10    24 1   
    24    11    12 1   
    25    11    25 1   
    26    11    26 1   
    27    12    27 1   
    28    12    28 1   
@<TRIPOS>SUBSTRUCTURE
     1 ZWZ         1 TEMP              0 ****  ****    0 ROOT
