@<TRIPOS>MOLECULE
ZX0
   43    44     1     0     0
SMALL
bcc


@<TRIPOS>ATOM
      1 S1          -4.4620    -0.8420     0.5800 s6         1 ZX0       1.367700
      2 O2          -4.7110    -2.0380    -0.2430 o          1 ZX0      -0.734867
      3 O3          -5.1980     0.3360     0.0810 o          1 ZX0      -0.734867
      4 O4          -4.6350    -1.0560     2.0250 o          1 ZX0      -0.734867
      5 N5          -2.8150    -0.5580     0.4310 n7         1 ZX0      -0.850100
      6 C6          -2.3270    -0.2190    -0.9030 c5         1 ZX0       0.226500
      7 C7          -1.6180    -1.4250    -1.5090 c5         1 ZX0      -0.094400
      8 C8          -0.2940    -1.4440    -0.7560 c5         1 ZX0       0.113000
      9 N9          -0.0500    -0.0320    -0.4920 n          1 ZX0      -0.450800
     10 C10         -1.1830     0.8080    -0.8360 c5         1 ZX0      -0.026300
     11 C11         -1.4580     1.9620     0.1510 c          1 ZX0       0.948600
     12 O12         -1.3500     1.6990     1.3690 o          1 ZX0      -0.826300
     13 C13          1.1560     0.5150    -0.2050 c          1 ZX0       0.792100
     14 O14          1.3550     1.7270    -0.2840 o          1 ZX0      -0.650100
     15 N15          2.1220    -0.3550     0.1980 ns         1 ZX0      -0.603900
     16 C16          3.5160     0.0240     0.3290 c3         1 ZX0       0.129700
     17 C17          4.1440    -0.8630     1.4000 c3         1 ZX0      -0.083400
     18 C18          5.6380    -0.6600     1.6280 c3         1 ZX0      -0.099400
     19 C19          6.5050    -1.1550     0.4670 c3         1 ZX0       0.170800
     20 N20          6.7000    -0.2640    -0.6660 n7         1 ZX0      -0.824200
     21 C21          5.6130     0.6390    -1.0090 c3         1 ZX0       0.171800
     22 C22          4.2330    -0.0110    -1.0260 c3         1 ZX0      -0.107400
     23 OX0         -1.8320     3.0350    -0.3500 o          1 ZX0      -0.826300
     24 H5          -2.4960     0.1180     1.1260 hn         1 ZX0       0.452800
     25 H6          -3.1270     0.1640    -1.5440 h1         1 ZX0       0.058700
     26 H71C        -2.1880    -2.3450    -1.3910 hc         1 ZX0       0.038700
     27 H72C        -1.4450    -1.2640    -2.5760 hc         1 ZX0       0.038700
     28 H10         -1.0600     1.2320    -1.8400 h1         1 ZX0       0.025700
     29 H81C        -0.3730    -2.0220     0.1710 h1         1 ZX0       0.012700
     30 H82C         0.5060    -1.8860    -1.3560 h1         1 ZX0       0.012700
     31 H15          1.9310    -1.3440     0.1840 hn         1 ZX0       0.293500
     32 H16          3.5430     1.0560     0.6850 h1         1 ZX0       0.078700
     33 H171         3.6030    -0.6930     2.3350 hc         1 ZX0       0.044700
     34 H172         3.9800    -1.9150     1.1340 hc         1 ZX0       0.044700
     35 H221         4.2930    -1.0370    -1.4060 hc         1 ZX0       0.053700
     36 H222         3.6140     0.5430    -1.7350 hc         1 ZX0       0.053700
     37 H181         5.8620     0.3850     1.8620 hc         1 ZX0       0.033200
     38 H182         5.9160    -1.2320     2.5170 hc         1 ZX0       0.033200
     39 H191         7.4990    -1.4040     0.8410 h1         1 ZX0       0.031200
     40 H192         6.0780    -2.1040     0.1200 h1         1 ZX0       0.031200
     41 H20          7.5300     0.2900    -0.5100 hn         1 ZX0       0.336800
     42 H211         5.5610     1.5180    -0.3470 h1         1 ZX0       0.025700
     43 H212         5.8270     1.0370    -2.0040 h1         1 ZX0       0.025700
@<TRIPOS>BOND
     1     1     2 1   
     2     1     3 1   
     3     1     4 1   
     4     1     5 1   
     5     5     6 1   
     6     5    24 1   
     7     6     7 1   
     8     6    10 1   
     9     6    25 1   
    10     7     8 1   
    11     7    26 1   
    12     7    27 1   
    13     8     9 1   
    14     8    29 1   
    15     8    30 1   
    16     9    10 1   
    17     9    13 1   
    18    10    11 1   
    19    10    28 1   
    20    11    12 1   
    21    11    23 1   
    22    13    14 2   
    23    13    15 1   
    24    15    16 1   
    25    15    31 1   
    26    16    17 1   
    27    16    22 1   
    28    16    32 1   
    29    17    18 1   
    30    17    33 1   
    31    17    34 1   
    32    18    19 1   
    33    18    37 1   
    34    18    38 1   
    35    19    20 1   
    36    19    39 1   
    37    19    40 1   
    38    20    21 1   
    39    20    41 1   
    40    21    22 1   
    41    21    42 1   
    42    21    43 1   
    43    22    35 1   
    44    22    36 1   
@<TRIPOS>SUBSTRUCTURE
     1 ZX0         1 TEMP              0 ****  ****    0 ROOT
