@<TRIPOS>MOLECULE
ZX0
   43    44     1     0     0
SMALL
No Charge or Current Charge


@<TRIPOS>ATOM
      1 S1          -4.3800    -0.7070     0.8570 s6         1 ZX0       1.367700
      2 O2          -4.8400    -1.7350    -0.0800 o          1 ZX0      -0.734867
      3 O3          -4.8020     0.6630     0.5750 o          1 ZX0      -0.734867
      4 O4          -4.3780    -1.0960     2.2670 o          1 ZX0      -0.734867
      5 N5          -2.7760    -0.6090     0.5530 n7         1 ZX0      -0.905300
      6 C6          -2.4520    -0.3290    -0.8730 c5         1 ZX0       0.226500
      7 C7          -1.7200    -1.5840    -1.4300 c5         1 ZX0      -0.094400
      8 C8          -0.3200    -1.5130    -0.7530 c5         1 ZX0       0.113000
      9 N9          -0.0830    -0.0550    -0.6690 n          1 ZX0      -0.383800
     10 C10         -1.3090     0.7390    -0.9920 c5         1 ZX0      -0.026300
     11 C11         -1.6180     2.0020    -0.1140 c          1 ZX0       0.738000
     12 O12         -1.7010     1.8960     1.1050 o          1 ZX0      -0.721000
     13 C13          1.1660     0.5220    -0.3830 c          1 ZX0       0.658100
     14 O14          1.3600     1.7270    -0.4160 o          1 ZX0      -0.650100
     15 N15          2.1640    -0.3700    -0.0730 ns         1 ZX0      -0.536900
     16 C16          3.5490    -0.0100     0.2370 c3         1 ZX0       0.129700
     17 C17          4.1190    -1.0120     1.2680 c3         1 ZX0      -0.083400
     18 C18          5.6100    -0.8200     1.6370 c3         1 ZX0      -0.099400
     19 C19          6.5750    -1.1870     0.4860 c3         1 ZX0       0.170800
     20 N20          6.8380    -0.0730    -0.4550 n7         1 ZX0      -0.879400
     21 C21          5.7330     0.8290    -0.8560 c3         1 ZX0       0.171800
     22 C22          4.3760     0.1210    -1.0650 c3         1 ZX0      -0.107400
     23 OX0         -1.7860     3.0780    -0.6750 o          1 ZX0      -0.721000
     24 H5          -2.6750     0.2800     1.0440 hn         1 ZX0       0.508000
     25 H6          -3.3280    -0.0400    -1.4750 h1         1 ZX0       0.058700
     26 H71C        -2.2420    -2.5240    -1.2160 hc         1 ZX0       0.038700
     27 H72C        -1.6240    -1.5160    -2.5200 hc         1 ZX0       0.038700
     28 H10         -1.2360     1.0770    -2.0340 h1         1 ZX0       0.025700
     29 H81C        -0.3280    -1.9600     0.2500 h1         1 ZX0       0.012700
     30 H82C         0.4430    -2.0240    -1.3550 h1         1 ZX0       0.012700
     31 H15          1.9080    -1.3470    -0.0670 hn         1 ZX0       0.293500
     32 H16          3.5340     0.9770     0.7210 h1         1 ZX0       0.078700
     33 H171         3.5230    -0.9370     2.1860 hc         1 ZX0       0.044700
     34 H172         3.9780    -2.0340     0.8950 hc         1 ZX0       0.044700
     35 H221         4.5130    -0.8560    -1.5430 hc         1 ZX0       0.053700
     36 H222         3.8000     0.7310    -1.7720 hc         1 ZX0       0.053700
     37 H181         5.7940     0.2010     1.9950 hc         1 ZX0       0.033200
     38 H182         5.8300    -1.4850     2.4800 hc         1 ZX0       0.033200
     39 H191         7.5290    -1.5170     0.9200 h1         1 ZX0       0.031200
     40 H192         6.1630    -2.0500    -0.0540 h1         1 ZX0       0.031200
     41 H20          7.5830     0.5140    -0.0600 hn         1 ZX0       0.392000
     42 H211         5.6020     1.6220    -0.1070 h1         1 ZX0       0.025700
     43 H212         6.0120     1.3300    -1.7930 h1         1 ZX0       0.025700
@<TRIPOS>BOND
     1     1     2 1   
     2     1     3 1   
     3     1     4 1   
     4     1     5 1   
     5     5     6 1   
     6     5    24 1   
     7     6     7 1   
     8     6    10 1   
     9     6    25 1   
    10     7     8 1   
    11     7    26 1   
    12     7    27 1   
    13     8     9 1   
    14     8    29 1   
    15     8    30 1   
    16     9    10 1   
    17     9    13 1   
    18    10    11 1   
    19    10    28 1   
    20    11    12 1   
    21    11    23 1   
    22    13    14 2   
    23    13    15 1   
    24    15    16 1   
    25    15    31 1   
    26    16    17 1   
    27    16    22 1   
    28    16    32 1   
    29    17    18 1   
    30    17    33 1   
    31    17    34 1   
    32    18    19 1   
    33    18    37 1   
    34    18    38 1   
    35    19    20 1   
    36    19    39 1   
    37    19    40 1   
    38    20    21 1   
    39    20    41 1   
    40    21    22 1   
    41    21    42 1   
    42    21    43 1   
    43    22    35 1   
    44    22    36 1   
@<TRIPOS>SUBSTRUCTURE
     1 ZX0         1 TEMP              0 ****  ****    0 ROOT
