@<TRIPOS>MOLECULE
ZX1
   43    44     1     0     0
SMALL
abcg2


@<TRIPOS>ATOM
      1 S1          -4.0830    -0.6410     1.2280 s6         1 ZX1       1.373700
      2 O2          -5.1210    -0.6320     0.1860 o          1 ZX1      -0.734867
      3 O3          -4.3690     0.2260     2.3810 o          1 ZX1      -0.734867
      4 O4          -3.7030    -2.0050     1.6460 o          1 ZX1      -0.734867
      5 N5          -2.7730     0.1150     0.4940 n7         1 ZX1      -0.875300
      6 C6          -2.3730    -0.2660    -0.8540 c5         1 ZX1       0.239500
      7 C7          -1.9250    -1.7230    -1.0160 c5         1 ZX1      -0.139400
      8 C8          -0.5100    -1.7120    -0.4620 c5         1 ZX1       0.108000
      9 N9          -0.0340    -0.4020    -0.8700 n          1 ZX1      -0.400800
     10 C10         -1.0970     0.5060    -1.2580 c5         1 ZX1      -0.025300
     11 C11         -1.0100     1.8910    -0.5780 c          1 ZX1       0.755000
     12 O12         -0.4410     1.9540     0.5260 o          1 ZX1      -0.734500
     13 C13          1.2620    -0.0290    -0.9870 c          1 ZX1       0.653100
     14 O14          1.5960     0.9860    -1.5930 o          1 ZX1      -0.649100
     15 N15          2.1740    -0.8820    -0.4280 ns         1 ZX1      -0.520900
     16 C16          3.5560    -0.4630    -0.2450 c3         1 ZX1       0.128700
     17 C17          4.3860    -1.7210     0.0210 c3         1 ZX1      -0.078400
     18 C18          5.8990    -1.5340     0.0040 c3         1 ZX1      -0.064400
     19 C19          6.4410    -0.3920     0.8540 c3         1 ZX1       0.180800
     20 N20          6.0700     0.8990     0.2980 n7         1 ZX1      -0.881400
     21 C21          4.8620     1.5040     0.8280 c3         1 ZX1       0.174800
     22 C22          3.6740     0.5490     0.9050 c3         1 ZX1      -0.111400
     23 OX0         -1.5690     2.8180    -1.1960 o          1 ZX1      -0.734500
     24 H5          -1.9920     0.2120     1.1340 hn         1 ZX1       0.470000
     25 H6          -3.1900    -0.0200    -1.5300 h1         1 ZX1       0.077700
     26 H71C        -2.5730    -2.4390    -0.5160 hc         1 ZX1       0.047700
     27 H72C        -1.9010    -1.9720    -2.0790 hc         1 ZX1       0.047700
     28 H10         -1.1130     0.6440    -2.3440 h1         1 ZX1       0.032700
     29 H81C        -0.5090    -1.8330     0.6290 h1         1 ZX1       0.019700
     30 H82C         0.1060    -2.5100    -0.8820 h1         1 ZX1       0.019700
     31 H15          1.8320    -1.5160     0.2790 hn         1 ZX1       0.283500
     32 H16          3.8840    -0.0030    -1.1790 h1         1 ZX1       0.086700
     33 H171         4.0840    -2.1290     0.9930 hc         1 ZX1       0.033200
     34 H172         4.1240    -2.4770    -0.7240 hc         1 ZX1       0.033200
     35 H221         2.7720     1.1620     0.9370 hc         1 ZX1       0.061700
     36 H222         3.6920    -0.0070     1.8480 hc         1 ZX1       0.061700
     37 H181         6.3600    -2.4720     0.3270 hc         1 ZX1       0.028700
     38 H182         6.2320    -1.3630    -1.0240 hc         1 ZX1       0.028700
     39 H191         6.1360    -0.5140     1.9050 h1         1 ZX1       0.011200
     40 H192         7.5310    -0.4580     0.8500 h1         1 ZX1       0.011200
     41 H20          6.8320     1.5520     0.4060 hn         1 ZX1       0.394000
     42 H211         5.0060     1.9350     1.8310 h1         1 ZX1       0.028700
     43 H212         4.5990     2.3380     0.1710 h1         1 ZX1       0.028700
@<TRIPOS>BOND
     1     1     2 1   
     2     1     3 1   
     3     1     4 1   
     4     1     5 1   
     5     5     6 1   
     6     5    24 1   
     7     6     7 1   
     8     6    10 1   
     9     6    25 1   
    10     7     8 1   
    11     7    26 1   
    12     7    27 1   
    13     8     9 1   
    14     8    29 1   
    15     8    30 1   
    16     9    10 1   
    17     9    13 1   
    18    10    11 1   
    19    10    28 1   
    20    11    12 1   
    21    11    23 1   
    22    13    14 2   
    23    13    15 1   
    24    15    16 1   
    25    15    31 1   
    26    16    17 1   
    27    16    22 1   
    28    16    32 1   
    29    17    18 1   
    30    17    33 1   
    31    17    34 1   
    32    18    19 1   
    33    18    37 1   
    34    18    38 1   
    35    19    20 1   
    36    19    39 1   
    37    19    40 1   
    38    20    21 1   
    39    20    41 1   
    40    21    22 1   
    41    21    42 1   
    42    21    43 1   
    43    22    35 1   
    44    22    36 1   
@<TRIPOS>SUBSTRUCTURE
     1 ZX1         1 TEMP              0 ****  ****    0 ROOT
