@<TRIPOS>MOLECULE
ZX1
   43    44     1     0     0
SMALL
No Charge or Current Charge


@<TRIPOS>ATOM
      1 S1          -4.2240    -0.7200     1.1430 s6         1 ZX1       1.373700
      2 O2          -4.9450    -1.2270    -0.0270 o          1 ZX1      -0.734867
      3 O3          -4.8700     0.3840     1.8570 o          1 ZX1      -0.734867
      4 O4          -3.5790    -1.7310     1.9770 o          1 ZX1      -0.734867
      5 N5          -2.8800     0.0060     0.5350 n7         1 ZX1      -0.875300
      6 C6          -2.5100    -0.3190    -0.8730 c5         1 ZX1       0.239500
      7 C7          -1.8910    -1.7520    -0.9230 c5         1 ZX1      -0.139400
      8 C8          -0.4980    -1.5710    -0.2590 c5         1 ZX1       0.108000
      9 N9          -0.1070    -0.2380    -0.7570 n          1 ZX1      -0.400800
     10 C10         -1.2670     0.5260    -1.3210 c5         1 ZX1      -0.025300
     11 C11         -1.4470     2.0310    -0.9070 c          1 ZX1       0.755000
     12 O12         -0.9220     2.4720     0.1120 o          1 ZX1      -0.734500
     13 C13          1.2210     0.2230    -0.8110 c          1 ZX1       0.653100
     14 O14          1.5410     1.2470    -1.3950 o          1 ZX1      -0.649100
     15 N15          2.1430    -0.5800    -0.1820 ns         1 ZX1      -0.520900
     16 C16          3.5810    -0.3130    -0.1120 c3         1 ZX1       0.128700
     17 C17          4.3380    -1.6640    -0.0320 c3         1 ZX1      -0.078400
     18 C18          5.8700    -1.5850    -0.2180 c3         1 ZX1      -0.064400
     19 C19          6.6060    -0.6130     0.7290 c3         1 ZX1       0.180800
     20 N20          6.3290     0.7820     0.3440 n7         1 ZX1      -0.881400
     21 C21          5.1860     1.4630     0.9880 c3         1 ZX1       0.174800
     22 C22          3.8900     0.6220     1.0850 c3         1 ZX1      -0.111400
     23 OX0         -2.0150     2.7790    -1.6960 o          1 ZX1      -0.734500
     24 H5          -2.2480    -0.4920     1.1470 hn         1 ZX1       0.470000
     25 H6          -3.3470    -0.1740    -1.5720 h1         1 ZX1       0.077700
     26 H71C        -2.4910    -2.5260    -0.4340 hc         1 ZX1       0.047700
     27 H72C        -1.7740    -2.0720    -1.9650 hc         1 ZX1       0.047700
     28 H10         -1.1920     0.5040    -2.4160 h1         1 ZX1       0.032700
     29 H81C        -0.5610    -1.5730     0.8380 h1         1 ZX1       0.019700
     30 H82C         0.2000    -2.3590    -0.5730 h1         1 ZX1       0.019700
     31 H15          1.7850    -1.4090     0.2720 hn         1 ZX1       0.283500
     32 H16          3.8750     0.1950    -1.0410 h1         1 ZX1       0.086700
     33 H171         4.1190    -2.1440     0.9310 hc         1 ZX1       0.033200
     34 H172         3.9430    -2.3350    -0.8050 hc         1 ZX1       0.033200
     35 H221         3.0620     1.3290     1.2160 hc         1 ZX1       0.061700
     36 H222         3.9170     0.0270     2.0060 hc         1 ZX1       0.061700
     37 H181         6.2830    -2.5900    -0.0670 hc         1 ZX1       0.028700
     38 H182         6.0940    -1.3150    -1.2570 hc         1 ZX1       0.028700
     39 H191         6.3400    -0.8080     1.7770 h1         1 ZX1       0.011200
     40 H192         7.6820    -0.8020     0.6220 h1         1 ZX1       0.011200
     41 H20          7.1670     1.3410     0.5480 hn         1 ZX1       0.394000
     42 H211         5.4610     1.7760     2.0050 h1         1 ZX1       0.028700
     43 H212         4.9600     2.3800     0.4270 h1         1 ZX1       0.028700
@<TRIPOS>BOND
     1     1     2 1   
     2     1     3 1   
     3     1     4 1   
     4     1     5 1   
     5     5     6 1   
     6     5    24 1   
     7     6     7 1   
     8     6    10 1   
     9     6    25 1   
    10     7     8 1   
    11     7    26 1   
    12     7    27 1   
    13     8     9 1   
    14     8    29 1   
    15     8    30 1   
    16     9    10 1   
    17     9    13 1   
    18    10    11 1   
    19    10    28 1   
    20    11    12 1   
    21    11    23 1   
    22    13    14 2   
    23    13    15 1   
    24    15    16 1   
    25    15    31 1   
    26    16    17 1   
    27    16    22 1   
    28    16    32 1   
    29    17    18 1   
    30    17    33 1   
    31    17    34 1   
    32    18    19 1   
    33    18    37 1   
    34    18    38 1   
    35    19    20 1   
    36    19    39 1   
    37    19    40 1   
    38    20    21 1   
    39    20    41 1   
    40    21    22 1   
    41    21    42 1   
    42    21    43 1   
    43    22    35 1   
    44    22    36 1   
@<TRIPOS>SUBSTRUCTURE
     1 ZX1         1 TEMP              0 ****  ****    0 ROOT
