@<TRIPOS>MOLECULE
ZX4
   73    78     1     0     0
SMALL
No Charge or Current Charge


@<TRIPOS>ATOM
      1 C1          19.1510    10.2120     3.0740 c3         1 ZX4       0.056600
      2 C10         14.2280     5.9920     7.3840 c3         1 ZX4      -0.077400
      3 C11         12.7130     5.7460     7.5610 c3         1 ZX4      -0.016100
      4 C12         20.6860    10.1460     2.8610 c5         1 ZX4       0.172300
      5 C13         12.3660     4.4390     8.2350 cc         1 ZX4      -0.036300
      6 C14         13.2220     3.4700     8.7150 cd         1 ZX4      -0.201000
      7 C15         11.0970     2.7850     9.1040 cd         1 ZX4       0.147400
      8 C16         11.0410     3.9950     8.4860 cc         1 ZX4      -0.303600
      9 C17          9.7710     4.6540     8.1750 c          1 ZX4       0.621600
     10 C18          8.8530     2.7080     9.1840 cc         1 ZX4       0.713800
     11 C19         21.1880     9.0330     1.8620 c5         1 ZX4       0.143300
     12 C2          23.4910     6.6410     7.9170 ca         1 ZX4       0.448900
     13 C20         21.9780     8.0800     2.8080 c5         1 ZX4       0.085300
     14 C21         22.5300     9.1310     3.8200 c5         1 ZX4       0.289300
     15 C22         24.3030     9.2050     5.6170 cc         1 ZX4       0.417700
     16 C23         22.7410     7.6360     5.8790 ca         1 ZX4       0.139500
     17 C24         21.6310     5.8740     6.8310 ca         1 ZX4       0.182900
     18 C25         23.6560     7.6070     6.9030 ca         1 ZX4      -0.104600
     19 C3          18.5710     8.5110     5.3490 c6         1 ZX4       0.114300
     20 C4          18.3140     7.0910     5.8950 c6         1 ZX4      -0.058400
     21 C5          17.6930     9.5160     6.1310 c6         1 ZX4      -0.060400
     22 C6          16.1870     9.1270     6.1180 c6         1 ZX4       0.041500
     23 C7          15.3580    10.3000     6.7890 c          1 ZX4       0.717000
     24 C8          16.8090     6.7340     5.8720 c6         1 ZX4       0.166800
     25 N1          23.1480     8.6540     5.0570 na         1 ZX4      -0.280300
     26 N10          9.9660     2.0790     9.4860 nd         1 ZX4      -0.714100
     27 N2           7.7260     2.0980     9.5080 nv         1 ZX4      -1.046200
     28 N3          24.6480     8.5810     6.7590 nd         1 ZX4      -0.559100
     29 N4          21.7110     6.7690     5.8180 nb         1 ZX4      -0.210000
     30 N5          22.4750     5.7650     7.8850 nb         1 ZX4      -0.303000
     31 N7          15.9800     7.7130     6.6390 n3         1 ZX4      -0.691600
     32 N8          12.4300     2.4420     9.2550 na         1 ZX4      -0.112000
     33 N9           8.7210     3.9040     8.5750 ns         1 ZX4      -0.458400
     34 O1          21.3600     9.8990     4.1200 os         1 ZX4      -0.443000
     35 O2          22.1000     9.5350     0.8770 oh         1 ZX4      -0.724000
     36 O3          22.9980     7.3480     2.0840 oh         1 ZX4      -0.720000
     37 O4          15.2920    10.3310     8.0140 o          1 ZX4      -0.723000
     38 O5          14.5110    10.8470     6.0940 o          1 ZX4      -0.723000
     39 O6           9.6310     5.7370     7.6300 o          1 ZX4      -0.546000
     40 S1          18.3360     8.5890     3.5040 ss         1 ZX4      -0.488000
     41 H1          18.9310    10.9620     3.8430 h1         1 ZX4       0.088700
     42 H2          18.7040    10.5710     2.1380 h1         1 ZX4       0.088700
     43 H3          14.6490     5.1640     6.8030 hc         1 ZX4       0.042200
     44 H4          14.7110     5.9830     8.3690 hc         1 ZX4       0.042200
     45 H5          12.2870     6.5740     8.1410 hc         1 ZX4       0.058200
     46 H6          12.2360     5.7790     6.5730 hc         1 ZX4       0.058200
     47 H7          21.0080    11.1330     2.5020 h1         1 ZX4       0.067700
     48 H8          14.3060     3.4300     8.7160 h4         1 ZX4       0.160000
     49 H9          20.3510     8.5070     1.3800 h1         1 ZX4       0.073700
     50 H10         21.2760     7.3970     3.3070 h1         1 ZX4       0.110700
     51 H11         23.2740     9.7730     3.3300 h2         1 ZX4       0.067700
     52 H12         24.8290    10.0350     5.1590 h5         1 ZX4       0.065800
     53 H13         20.8020     5.1680     6.7940 h5         1 ZX4       0.049100
     54 H14         19.6250     8.7550     5.5380 h1         1 ZX4       0.062700
     55 H15         18.8760     6.3540     5.3070 hc         1 ZX4       0.041200
     56 H16         18.6870     7.0190     6.9260 hc         1 ZX4       0.041200
     57 H17         18.0410     9.5640     7.1710 hc         1 ZX4       0.055200
     58 H18         17.8190    10.5270     5.7250 hc         1 ZX4       0.055200
     59 H19         15.8730     9.1370     5.0630 h1         1 ZX4       0.023700
     60 H20         16.4640     6.6840     4.8290 h1         1 ZX4       0.014200
     61 H21         16.7050     5.7250     6.2930 h1         1 ZX4       0.014200
     62 H22         13.9760     8.1110     7.2190 h1         1 ZX4       0.034200
     63 H23         14.1320     7.3000     5.6620 h1         1 ZX4       0.034200
     64 H24          7.8590     1.1320     9.7800 hn         1 ZX4       0.485500
     65 H25          6.9210     2.2750     8.9210 hn         1 ZX4       0.485500
     66 H26         24.3510     5.6550     9.4880 hn         1 ZX4       0.503500
     67 H27         25.2290     7.0270     8.9000 hn         1 ZX4       0.503500
     68 H29         12.7640     1.5880     9.6860 hn         1 ZX4       0.350000
     69 H30          7.8040     4.2870     8.4220 hn         1 ZX4       0.313500
     70 H31         22.7890     8.8210     0.8510 ho         1 ZX4       0.518000
     71 H32         23.3880     6.6880     2.7070 ho         1 ZX4       0.519000
     72 C9          14.5390     7.3360     6.6830 c3         1 ZX4       0.184800
     73 N6          24.3450     6.5300     8.9690 nv         1 ZX4      -1.070900
@<TRIPOS>BOND
     1     1     4 1   
     2     1    40 1   
     3     1    41 1   
     4     1    42 1   
     5     2     3 1   
     6     2    43 1   
     7     2    44 1   
     8     2    72 1   
     9     3     5 1   
    10     3    45 1   
    11     3    46 1   
    12     4    11 1   
    13     4    34 1   
    14     4    47 1   
    15     5     6 2   
    16     5     8 1   
    17     6    32 1   
    18     6    48 1   
    19     7     8 2   
    20     7    26 1   
    21     7    32 1   
    22     8     9 1   
    23     9    33 1   
    24     9    39 2   
    25    10    26 2   
    26    10    27 1   
    27    10    33 1   
    28    11    13 1   
    29    11    35 1   
    30    11    49 1   
    31    12    18 ar  
    32    12    30 ar  
    33    12    73 1   
    34    13    14 1   
    35    13    36 1   
    36    13    50 1   
    37    14    25 1   
    38    14    34 1   
    39    14    51 1   
    40    15    25 1   
    41    15    28 2   
    42    15    52 1   
    43    16    18 ar  
    44    16    25 1   
    45    16    29 ar  
    46    17    29 ar  
    47    17    30 ar  
    48    17    53 1   
    49    18    28 1   
    50    19    20 1   
    51    19    21 1   
    52    19    40 1   
    53    19    54 1   
    54    20    24 1   
    55    20    55 1   
    56    20    56 1   
    57    21    22 1   
    58    21    57 1   
    59    21    58 1   
    60    22    23 1   
    61    22    31 1   
    62    22    59 1   
    63    23    37 1   
    64    23    38 1   
    65    24    31 1   
    66    24    60 1   
    67    24    61 1   
    68    27    64 1   
    69    27    65 1   
    70    31    72 1   
    71    32    68 1   
    72    33    69 1   
    73    35    70 1   
    74    36    71 1   
    75    62    72 1   
    76    63    72 1   
    77    66    73 1   
    78    67    73 1   
@<TRIPOS>SUBSTRUCTURE
     1 ZX4         1 TEMP              0 ****  ****    0 ROOT
