@<TRIPOS>MOLECULE
ZX4
   73    78     1     0     0
SMALL
abcg2


@<TRIPOS>ATOM
      1 C1          19.1610    10.0840     3.2660 c3         1 ZX4       0.056600
      2 C10         14.1860     6.3250     7.5460 c3         1 ZX4      -0.077400
      3 C11         12.7420     5.8660     7.3890 c3         1 ZX4      -0.016100
      4 C12         20.6540    10.2110     3.0440 c5         1 ZX4       0.172300
      5 C13         12.2980     4.8730     8.4150 cc         1 ZX4      -0.036300
      6 C14         12.9840     4.4430     9.5130 cd         1 ZX4      -0.201000
      7 C15         11.0500     3.3360     9.5600 cd         1 ZX4       0.147400
      8 C16         11.0510     4.1670     8.4400 cc         1 ZX4      -0.303600
      9 C17          9.9080     4.1500     7.5950 c          1 ZX4       0.621600
     10 C18          9.0360     2.4780     9.1740 cc         1 ZX4       0.713800
     11 C19         21.2430     9.3080     1.9450 c5         1 ZX4       0.143300
     12 C2          23.3700     6.1940     7.6130 ca         1 ZX4       0.448900
     13 C20         22.1030     8.3280     2.7430 c5         1 ZX4       0.085300
     14 C21         22.5350     9.2280     3.9010 c5         1 ZX4       0.289300
     15 C22         24.1170     9.0880     5.7980 cc         1 ZX4       0.417700
     16 C23         22.6990     7.4240     5.6920 ca         1 ZX4       0.139500
     17 C24         21.6700     5.5490     6.2100 ca         1 ZX4       0.182900
     18 C25         23.5480     7.3180     6.7840 ca         1 ZX4      -0.104600
     19 C3          18.6460     8.3800     5.5050 c6         1 ZX4       0.114300
     20 C4          18.2620     6.9770     5.9560 c6         1 ZX4      -0.058400
     21 C5          17.7260     9.3830     6.1840 c6         1 ZX4      -0.060400
     22 C6          16.2370     9.0590     6.0560 c6         1 ZX4       0.041500
     23 C7          15.4890    10.1640     6.8480 c          1 ZX4       0.717000
     24 C8          16.7700     6.7230     5.8260 c6         1 ZX4       0.166800
     25 N1          23.0820     8.5770     5.0570 na         1 ZX4      -0.280300
     26 N10         10.0800     2.4890     9.9560 nd         1 ZX4      -0.714100
     27 N2           7.9710     1.7080     9.4800 nv         1 ZX4      -1.046200
     28 N3          24.4270     8.3690     6.8310 nd         1 ZX4      -0.559100
     29 N4          21.7410     6.5600     5.3620 nb         1 ZX4      -0.210000
     30 N5          22.4100     5.3220     7.2900 nb         1 ZX4      -0.303000
     31 N7          15.9770     7.7100     6.5390 n3         1 ZX4      -0.691600
     32 N8          12.2200     3.5170    10.1990 na         1 ZX4      -0.112000
     33 N9           8.9350     3.2530     8.0550 ns         1 ZX4      -0.458400
     34 O1          21.3620     9.9140     4.2460 os         1 ZX4      -0.443000
     35 O2          22.0180    10.1110     1.0900 oh         1 ZX4      -0.724000
     36 O3          23.1620     7.8270     1.9850 oh         1 ZX4      -0.720000
     37 O4          15.2700     9.9650     8.0570 o          1 ZX4      -0.723000
     38 O5          15.2330    11.1980     6.1980 o          1 ZX4      -0.723000
     39 O6           9.7030     4.7950     6.5760 o          1 ZX4      -0.546000
     40 S1          18.5540     8.4270     3.6740 ss         1 ZX4      -0.488000
     41 H1          18.8350    10.7900     4.0310 h1         1 ZX4       0.088700
     42 H2          18.6570    10.3800     2.3440 h1         1 ZX4       0.088700
     43 H3          14.8460     5.4530     7.5020 hc         1 ZX4       0.042200
     44 H4          14.3350     6.7770     8.5310 hc         1 ZX4       0.042200
     45 H5          12.0790     6.7380     7.4140 hc         1 ZX4       0.058200
     46 H6          12.6100     5.4350     6.3920 hc         1 ZX4       0.058200
     47 H7          20.8460    11.2540     2.7610 h1         1 ZX4       0.067700
     48 H8          13.9620     4.7130     9.8760 h4         1 ZX4       0.160000
     49 H9          20.4560     8.7810     1.3910 h1         1 ZX4       0.073700
     50 H10         21.4530     7.5370     3.1280 h1         1 ZX4       0.110700
     51 H11         23.3140     9.9180     3.5510 h2         1 ZX4       0.067700
     52 H12         24.6030    10.0080     5.5060 h5         1 ZX4       0.065800
     53 H13         20.9080     4.8060     6.0000 h5         1 ZX4       0.049100
     54 H14         19.6810     8.5790     5.7770 h1         1 ZX4       0.062700
     55 H15         18.8170     6.2200     5.3980 hc         1 ZX4       0.041200
     56 H16         18.5550     6.8740     7.0050 hc         1 ZX4       0.041200
     57 H17         17.9890     9.3890     7.2470 hc         1 ZX4       0.055200
     58 H18         17.9060    10.3960     5.8200 hc         1 ZX4       0.055200
     59 H19         15.9530     9.1540     4.9930 h1         1 ZX4       0.023700
     60 H20         16.4910     6.6830     4.7570 h1         1 ZX4       0.014200
     61 H21         16.5520     5.7320     6.2300 h1         1 ZX4       0.014200
     62 H22         13.9570     8.2340     6.6350 h1         1 ZX4       0.034200
     63 H23         14.3010     6.9590     5.4850 h1         1 ZX4       0.034200
     64 H24          8.1140     1.0050    10.1860 hn         1 ZX4       0.485500
     65 H25          7.2940     1.4770     8.7710 hn         1 ZX4       0.485500
     66 H26         23.9720     5.1460     9.2490 hn         1 ZX4       0.503500
     67 H27         24.8600     6.5970     8.9530 hn         1 ZX4       0.503500
     68 H29         12.5000     3.0420    11.0420 hn         1 ZX4       0.350000
     69 H30          8.0920     3.1990     7.4980 hn         1 ZX4       0.313500
     70 H31         22.4740     9.5350     0.4660 ho         1 ZX4       0.518000
     71 H32         23.4370     6.9830     2.3540 ho         1 ZX4       0.519000
     72 C9          14.5700     7.3460     6.4830 c3         1 ZX4       0.184800
     73 N6          24.1140     5.9750     8.6980 nv         1 ZX4      -1.070900
@<TRIPOS>BOND
     1     1     4 1   
     2     1    40 1   
     3     1    41 1   
     4     1    42 1   
     5     2     3 1   
     6     2    43 1   
     7     2    44 1   
     8     2    72 1   
     9     3     5 1   
    10     3    45 1   
    11     3    46 1   
    12     4    11 1   
    13     4    34 1   
    14     4    47 1   
    15     5     6 2   
    16     5     8 1   
    17     6    32 1   
    18     6    48 1   
    19     7     8 2   
    20     7    26 1   
    21     7    32 1   
    22     8     9 1   
    23     9    33 1   
    24     9    39 2   
    25    10    26 2   
    26    10    27 1   
    27    10    33 1   
    28    11    13 1   
    29    11    35 1   
    30    11    49 1   
    31    12    18 ar  
    32    12    30 ar  
    33    12    73 1   
    34    13    14 1   
    35    13    36 1   
    36    13    50 1   
    37    14    25 1   
    38    14    34 1   
    39    14    51 1   
    40    15    25 1   
    41    15    28 2   
    42    15    52 1   
    43    16    18 ar  
    44    16    25 1   
    45    16    29 ar  
    46    17    29 ar  
    47    17    30 ar  
    48    17    53 1   
    49    18    28 1   
    50    19    20 1   
    51    19    21 1   
    52    19    40 1   
    53    19    54 1   
    54    20    24 1   
    55    20    55 1   
    56    20    56 1   
    57    21    22 1   
    58    21    57 1   
    59    21    58 1   
    60    22    23 1   
    61    22    31 1   
    62    22    59 1   
    63    23    37 1   
    64    23    38 1   
    65    24    31 1   
    66    24    60 1   
    67    24    61 1   
    68    27    64 1   
    69    27    65 1   
    70    31    72 1   
    71    32    68 1   
    72    33    69 1   
    73    35    70 1   
    74    36    71 1   
    75    62    72 1   
    76    63    72 1   
    77    66    73 1   
    78    67    73 1   
@<TRIPOS>SUBSTRUCTURE
     1 ZX4         1 TEMP              0 ****  ****    0 ROOT
