@<TRIPOS>MOLECULE
ZX5
   50    52     1     0     0
SMALL
No Charge or Current Charge


@<TRIPOS>ATOM
      1 CAT          4.7280    -0.0440     0.1170 ca         1 ZX5      -0.097800
      2 CAI          4.3090    -0.9080     1.1390 ca         1 ZX5      -0.062000
      3 CAG          5.1760    -1.0890     2.2380 ca         1 ZX5      -0.142000
      4 CAF          6.4210    -0.4150     2.2890 ca         1 ZX5      -0.092000
      5 CAH          6.8100     0.4470     1.2400 ca         1 ZX5      -0.129000
      6 CAS          5.9280     0.6070     0.1640 ca         1 ZX5      -0.047200
      7 NAP          6.0690     1.3820    -0.9730 na         1 ZX5      -0.224700
      8 CAJ          4.9310     1.2420    -1.7970 cc         1 ZX5      -0.155100
      9 CAR          4.0980     0.3580    -1.1200 cd         1 ZX5      -0.145400
     10 CAL          2.7480    -0.1100    -1.6020 c3         1 ZX5       0.012800
     11 CAK          1.5900     0.6300    -0.9000 c3         1 ZX5      -0.160400
     12 CAQ          0.2310     0.1250    -1.3910 c          1 ZX5       0.597100
     13 OAB         -0.2160     0.4130    -2.4920 o          1 ZX5      -0.591100
     14 NAN         -0.4590    -0.6530    -0.4880 ns         1 ZX5      -0.521900
     15 CAM         -1.8030    -1.2200    -0.7120 c3         1 ZX5       0.104000
     16 CAV         -2.8950    -0.6150     0.2260 c6         1 ZX5       0.158500
     17 NAO         -2.9590     0.8640     0.0470 n7         1 ZX5      -0.848400
     18 CAU         -3.9610     1.5170     0.9290 c6         1 ZX5       0.184500
     19 CAA         -3.9210     3.0490     0.6970 c3         1 ZX5      -0.084100
     20 CAW         -5.4060     0.9110     0.7690 c6         1 ZX5       0.156300
     21 OAC         -6.0130     1.2180    -0.5020 oh         1 ZX5      -0.692000
     22 CAY         -5.3550    -0.6360     0.9500 c6         1 ZX5       0.088300
     23 OAE         -6.6570    -1.2210     0.7160 oh         1 ZX5      -0.671000
     24 CAX         -4.2970    -1.2730    -0.0030 c6         1 ZX5       0.181300
     25 OAD         -4.2760    -2.6960     0.2150 oh         1 ZX5      -0.728000
     26 HAI          3.3510    -1.4200     1.0880 ha         1 ZX5       0.114000
     27 HAG          4.8860    -1.7520     3.0500 ha         1 ZX5       0.110000
     28 HAF          7.0820    -0.5620     3.1400 ha         1 ZX5       0.109000
     29 HAH          7.7640     0.9700     1.2690 ha         1 ZX5       0.112000
     30 HNAP         6.8750     1.9650    -1.1800 hn         1 ZX5       0.350000
     31 HAJ          4.8120     1.7560    -2.7470 h4         1 ZX5       0.213000
     32 HAL          2.6670     0.0380    -2.6870 hc         1 ZX5       0.060200
     33 HALA         2.6460    -1.1890    -1.4310 hc         1 ZX5       0.060200
     34 HAK          1.6820     0.4750     0.1810 hc         1 ZX5       0.056700
     35 HAKA         1.6740     1.6980    -1.1290 hc         1 ZX5       0.056700
     36 HNAN        -0.0020    -0.8350     0.3980 hn         1 ZX5       0.305500
     37 HAM         -2.1090    -1.0650    -1.7540 h1         1 ZX5       0.076700
     38 HAMA        -1.7510    -2.3030    -0.5400 h1         1 ZX5       0.076700
     39 HAV         -2.5860    -0.8180     1.2630 h1         1 ZX5       0.020700
     40 HNAO        -2.0310     1.2570     0.2420 hn         1 ZX5       0.423000
     41 HAU         -3.6470     1.3460     1.9690 h1         1 ZX5       0.011700
     42 HAA         -4.1750     3.3060    -0.3390 hc         1 ZX5       0.044700
     43 HAAA        -4.6330     3.5630     1.3530 hc         1 ZX5       0.044700
     44 HAAB        -2.9250     3.4550     0.9080 hc         1 ZX5       0.044700
     45 HAW         -6.0330     1.3250     1.5730 h1         1 ZX5       0.024700
     46 HOAC        -6.6380     0.4710    -0.6550 ho         1 ZX5       0.509000
     47 HAY         -5.0390    -0.8400     1.9840 h1         1 ZX5       0.043700
     48 HOAE        -7.2070    -1.0410     1.5140 ho         1 ZX5       0.450000
     49 HAX         -4.5990    -1.0620    -1.0410 h1         1 ZX5       0.074700
     50 HOAD        -5.2250    -2.9280     0.3640 ho         1 ZX5       0.521000
@<TRIPOS>BOND
     1     1     2 ar  
     2     1     6 ar  
     3     1     9 1   
     4     2     3 ar  
     5     2    26 1   
     6     3     4 ar  
     7     3    27 1   
     8     4     5 ar  
     9     4    28 1   
    10     5     6 ar  
    11     5    29 1   
    12     6     7 1   
    13     7     8 1   
    14     7    30 1   
    15     8     9 2   
    16     8    31 1   
    17     9    10 1   
    18    10    11 1   
    19    10    32 1   
    20    10    33 1   
    21    11    12 1   
    22    11    34 1   
    23    11    35 1   
    24    12    13 2   
    25    12    14 1   
    26    14    15 1   
    27    14    36 1   
    28    15    16 1   
    29    15    37 1   
    30    15    38 1   
    31    16    17 1   
    32    16    24 1   
    33    16    39 1   
    34    17    18 1   
    35    17    40 1   
    36    18    19 1   
    37    18    20 1   
    38    18    41 1   
    39    19    42 1   
    40    19    43 1   
    41    19    44 1   
    42    20    21 1   
    43    20    22 1   
    44    20    45 1   
    45    21    46 1   
    46    22    23 1   
    47    22    24 1   
    48    22    47 1   
    49    23    48 1   
    50    24    25 1   
    51    24    49 1   
    52    25    50 1   
@<TRIPOS>SUBSTRUCTURE
     1 ZX5         1 TEMP              0 ****  ****    0 ROOT
