@<TRIPOS>MOLECULE
ZX5
   50    52     1     0     0
SMALL
bcc


@<TRIPOS>ATOM
      1 CAT          4.8090    -0.0270    -0.0400 ca         1 ZX5      -0.097800
      2 CAI          4.8910    -1.3380     0.4450 ca         1 ZX5      -0.080000
      3 CAG          5.9760    -1.6980     1.2200 ca         1 ZX5      -0.160000
      4 CAF          6.9880    -0.7720     1.5260 ca         1 ZX5      -0.110000
      5 CAH          6.9350     0.5280     1.0600 ca         1 ZX5      -0.147000
      6 CAS          5.8380     0.8870     0.2770 ca         1 ZX5      -0.047200
      7 NAP          5.5240     2.0730    -0.3170 na         1 ZX5      -0.174400
      8 CAJ          4.3430     1.9400    -0.9940 cc         1 ZX5      -0.105100
      9 CAR          3.8600     0.6690    -0.8580 cd         1 ZX5      -0.145400
     10 CAL          2.5800     0.1230    -1.4000 c3         1 ZX5       0.012800
     11 CAK          1.5050     0.0400    -0.3190 c3         1 ZX5      -0.160400
     12 CAQ          0.1900    -0.5310    -0.8100 c          1 ZX5       0.664100
     13 OAB         -0.1130    -0.5580    -1.9940 o          1 ZX5      -0.591100
     14 NAN         -0.6170    -0.9770     0.1730 ns         1 ZX5      -0.588900
     15 CAM         -1.9470    -1.5100    -0.0160 c3         1 ZX5       0.104000
     16 CAV         -3.0220    -0.5930     0.5630 c6         1 ZX5       0.158500
     17 NAO         -2.9930     0.6860    -0.1200 n7         1 ZX5      -0.793200
     18 CAU         -3.9280     1.6580     0.4240 c6         1 ZX5       0.184500
     19 CAA         -3.7270     3.0050    -0.2490 c3         1 ZX5      -0.084100
     20 CAW         -5.3520     1.1350     0.2730 c6         1 ZX5       0.133100
     21 OAC         -5.7020     1.0770    -1.0890 oh         1 ZX5      -0.569800
     22 CAY         -5.4580    -0.2390     0.9340 c6         1 ZX5       0.065100
     23 OAE         -6.7270    -0.8230     0.7090 oh         1 ZX5      -0.608800
     24 CAX         -4.4100    -1.2030     0.3910 c6         1 ZX5       0.158100
     25 OAD         -4.4470    -2.4320     1.0790 oh         1 ZX5      -0.605800
     26 HAI          4.1190    -2.0620     0.2140 ha         1 ZX5       0.132000
     27 HAG          6.0520    -2.7090     1.6010 ha         1 ZX5       0.128000
     28 HAF          7.8260    -1.0830     2.1360 ha         1 ZX5       0.127000
     29 HAH          7.7150     1.2410     1.2970 ha         1 ZX5       0.130000
     30 HNAP         6.0670     2.9180    -0.2660 hn         1 ZX5       0.299700
     31 HAJ          3.9240     2.7760    -1.5340 h4         1 ZX5       0.163000
     32 HAL          2.2280     0.7510    -2.2200 hc         1 ZX5       0.060200
     33 HALA         2.7510    -0.8700    -1.8240 hc         1 ZX5       0.060200
     34 HAK          1.8660    -0.5420     0.5330 hc         1 ZX5       0.056700
     35 HAKA         1.3070     1.0440     0.0710 hc         1 ZX5       0.056700
     36 HNAN        -0.2690    -0.9440     1.1190 hn         1 ZX5       0.305500
     37 HAM         -2.1180    -1.6430    -1.0840 h1         1 ZX5       0.076700
     38 HAMA        -2.0060    -2.4910     0.4550 h1         1 ZX5       0.076700
     39 HAV         -2.8400    -0.4840     1.6490 h1         1 ZX5       0.020700
     40 HNAO        -2.0580     1.0680    -0.0580 hn         1 ZX5       0.367800
     41 HAU         -3.7750     1.7970     1.5090 h1         1 ZX5       0.011700
     42 HAA         -3.8710     2.9380    -1.3270 hc         1 ZX5       0.044700
     43 HAAA        -4.4260     3.7430     0.1460 hc         1 ZX5       0.044700
     44 HAAB        -2.7180     3.3790    -0.0650 hc         1 ZX5       0.044700
     45 HAW         -6.0160     1.8260     0.8160 h1         1 ZX5       0.024700
     46 HOAC        -6.5240     0.5780    -1.1490 ho         1 ZX5       0.410000
     47 HAY         -5.2730    -0.1100     2.0100 h1         1 ZX5       0.043700
     48 HOAE        -7.3630    -0.4260     1.3120 ho         1 ZX5       0.411000
     49 HAX         -4.5850    -1.3490    -0.6860 h1         1 ZX5       0.074700
     50 HOAD        -5.3460    -2.7720     1.0250 ho         1 ZX5       0.422000
@<TRIPOS>BOND
     1     1     2 ar  
     2     1     6 ar  
     3     1     9 1   
     4     2     3 ar  
     5     2    26 1   
     6     3     4 ar  
     7     3    27 1   
     8     4     5 ar  
     9     4    28 1   
    10     5     6 ar  
    11     5    29 1   
    12     6     7 1   
    13     7     8 1   
    14     7    30 1   
    15     8     9 2   
    16     8    31 1   
    17     9    10 1   
    18    10    11 1   
    19    10    32 1   
    20    10    33 1   
    21    11    12 1   
    22    11    34 1   
    23    11    35 1   
    24    12    13 2   
    25    12    14 1   
    26    14    15 1   
    27    14    36 1   
    28    15    16 1   
    29    15    37 1   
    30    15    38 1   
    31    16    17 1   
    32    16    24 1   
    33    16    39 1   
    34    17    18 1   
    35    17    40 1   
    36    18    19 1   
    37    18    20 1   
    38    18    41 1   
    39    19    42 1   
    40    19    43 1   
    41    19    44 1   
    42    20    21 1   
    43    20    22 1   
    44    20    45 1   
    45    21    46 1   
    46    22    23 1   
    47    22    24 1   
    48    22    47 1   
    49    23    48 1   
    50    24    25 1   
    51    24    49 1   
    52    25    50 1   
@<TRIPOS>SUBSTRUCTURE
     1 ZX5         1 TEMP              0 ****  ****    0 ROOT
