@<TRIPOS>MOLECULE
ZX6
   47    49     1     0     0
SMALL
bcc


@<TRIPOS>ATOM
      1 CAS          2.4820    -0.2030    -0.7900 ca         1 ZX6      -0.094800
      2 CAI          1.5860    -0.7760    -1.7020 ca         1 ZX6      -0.094000
      3 CAG          1.5050    -2.1520    -1.7880 ca         1 ZX6      -0.158000
      4 CAF          2.3050    -2.9760    -0.9800 ca         1 ZX6      -0.114000
      5 CAH          3.1990    -2.4410    -0.0720 ca         1 ZX6      -0.140000
      6 CAR          3.2760    -1.0520     0.0140 ca         1 ZX6      -0.046200
      7 NAO          4.0550    -0.2550     0.8000 na         1 ZX6      -0.170400
      8 CAJ          3.7850     1.0550     0.5260 cc         1 ZX6      -0.076100
      9 CAQ          2.8300     1.1450    -0.4450 cd         1 ZX6      -0.150400
     10 CAL          2.2120     2.3930    -0.9870 c3         1 ZX6      -0.082200
     11 CAP          0.8390     2.5750    -0.3600 c          1 ZX6       0.670100
     12 OAB          0.7120     2.9100     0.8070 o          1 ZX6      -0.585100
     13 NAM         -0.1950     2.2780    -1.1690 ns         1 ZX6      -0.584900
     14 CAK         -1.5750     2.1880    -0.7500 c3         1 ZX6       0.105000
     15 CAU         -2.0410     0.7350    -0.6380 c6         1 ZX6       0.159500
     16 NAN         -1.2360     0.0320     0.3410 n7         1 ZX6      -0.792200
     17 CAT         -1.5660    -1.3780     0.4700 c6         1 ZX6       0.186500
     18 CAA         -0.5750    -2.0580     1.4000 c3         1 ZX6      -0.087100
     19 CAV         -3.0080    -1.5210     0.9400 c6         1 ZX6       0.133100
     20 OAC         -3.1350    -1.0270     2.2510 oh         1 ZX6      -0.568800
     21 CAX         -3.9290    -0.7770    -0.0260 c6         1 ZX6       0.065100
     22 OAE         -5.2660    -0.7680     0.4420 oh         1 ZX6      -0.610800
     23 CAW         -3.5030     0.6740    -0.2040 c6         1 ZX6       0.157100
     24 OAD         -4.2850     1.3170    -1.1830 oh         1 ZX6      -0.606800
     25 HAI          0.9710    -0.1540    -2.3400 ha         1 ZX6       0.124000
     26 HAG          0.8160    -2.6060    -2.4890 ha         1 ZX6       0.128000
     27 HAF          2.2190    -4.0510    -1.0690 ha         1 ZX6       0.129000
     28 HAH          3.8170    -3.0780     0.5490 ha         1 ZX6       0.133000
     29 HNAO         4.7320    -0.5750     1.4720 hn         1 ZX6       0.302700
     30 HAJ          4.3010     1.8440     1.0520 h4         1 ZX6       0.169000
     31 HAL          2.8250     3.2580    -0.7310 hc         1 ZX6       0.061700
     32 HALA         2.1540     2.3500    -2.0780 hc         1 ZX6       0.061700
     33 HNAM        -0.0010     2.0730    -2.1350 hn         1 ZX6       0.304500
     34 HAK         -1.6820     2.6880     0.2120 h1         1 ZX6       0.074200
     35 HAKA        -2.1950     2.7180    -1.4720 h1         1 ZX6       0.074200
     36 HAU         -1.9700     0.2740    -1.6410 h1         1 ZX6       0.017700
     37 HNAN        -0.2600     0.1020     0.0790 hn         1 ZX6       0.376800
     38 HAT         -1.5160    -1.8970    -0.5050 h1         1 ZX6       0.011700
     39 HAA         -0.5630    -1.5850     2.3820 hc         1 ZX6       0.046033
     40 HAAA        -0.8280    -3.1110     1.5290 hc         1 ZX6       0.046033
     41 HAAB         0.4340    -2.0130     0.9840 hc         1 ZX6       0.046033
     42 HAV         -3.2680    -2.5910     0.9000 h1         1 ZX6       0.022700
     43 HOAC        -4.0780    -0.9690     2.4440 ho         1 ZX6       0.408000
     44 HAX         -3.8650    -1.2740    -1.0050 h1         1 ZX6       0.042700
     45 HOAE        -5.6680    -1.6190     0.2430 ho         1 ZX6       0.410000
     46 HAW         -3.5870     1.1880     0.7660 h1         1 ZX6       0.073700
     47 HOAD        -5.2100     1.2060    -0.9400 ho         1 ZX6       0.421000
@<TRIPOS>BOND
     1     1     2 ar  
     2     1     6 ar  
     3     1     9 1   
     4     2     3 ar  
     5     2    25 1   
     6     3     4 ar  
     7     3    26 1   
     8     4     5 ar  
     9     4    27 1   
    10     5     6 ar  
    11     5    28 1   
    12     6     7 1   
    13     7     8 1   
    14     7    29 1   
    15     8     9 2   
    16     8    30 1   
    17     9    10 1   
    18    10    11 1   
    19    10    31 1   
    20    10    32 1   
    21    11    12 2   
    22    11    13 1   
    23    13    14 1   
    24    13    33 1   
    25    14    15 1   
    26    14    34 1   
    27    14    35 1   
    28    15    16 1   
    29    15    23 1   
    30    15    36 1   
    31    16    17 1   
    32    16    37 1   
    33    17    18 1   
    34    17    19 1   
    35    17    38 1   
    36    18    39 1   
    37    18    40 1   
    38    18    41 1   
    39    19    20 1   
    40    19    21 1   
    41    19    42 1   
    42    20    43 1   
    43    21    22 1   
    44    21    23 1   
    45    21    44 1   
    46    22    45 1   
    47    23    24 1   
    48    23    46 1   
    49    24    47 1   
@<TRIPOS>SUBSTRUCTURE
     1 ZX6         1 TEMP              0 ****  ****    0 ROOT
