@<TRIPOS>MOLECULE
ZX6
   47    49     1     0     0
SMALL
No Charge or Current Charge


@<TRIPOS>ATOM
      1 CAS          2.4680    -0.2190    -0.8070 ca         1 ZX6      -0.094800
      2 CAI          1.5150    -0.6710    -1.7310 ca         1 ZX6      -0.076000
      3 CAG          1.3380    -2.0650    -1.8620 ca         1 ZX6      -0.140000
      4 CAF          2.1100    -2.9620    -1.0840 ca         1 ZX6      -0.096000
      5 CAH          3.0680    -2.4720    -0.1690 ca         1 ZX6      -0.122000
      6 CAR          3.2170    -1.0830    -0.0600 ca         1 ZX6      -0.046200
      7 NAO          4.0730    -0.3610     0.7520 na         1 ZX6      -0.220700
      8 CAJ          3.8830     1.0220     0.5450 cc         1 ZX6      -0.126100
      9 CAQ          2.8860     1.1120    -0.4200 cd         1 ZX6      -0.150400
     10 CAL          2.2930     2.4020    -0.9400 c3         1 ZX6      -0.082200
     11 CAP          0.8960     2.6650    -0.3620 c          1 ZX6       0.603100
     12 OAB          0.7190     3.0840     0.7740 o          1 ZX6      -0.585100
     13 NAM         -0.1480     2.3590    -1.2080 ns         1 ZX6      -0.517900
     14 CAK         -1.5590     2.2520    -0.8000 c3         1 ZX6       0.105000
     15 CAU         -2.0130     0.7690    -0.6080 c6         1 ZX6       0.159500
     16 NAN         -1.1450     0.0930     0.3980 n7         1 ZX6      -0.847400
     17 CAT         -1.4830    -1.3380     0.5910 c6         1 ZX6       0.186500
     18 CAA         -0.4960    -1.9560     1.6140 c3         1 ZX6      -0.087100
     19 CAV         -2.9940    -1.5640     0.9770 c6         1 ZX6       0.156300
     20 OAC         -3.3180    -1.0960     2.3020 oh         1 ZX6      -0.691000
     21 CAX         -3.9180    -0.8500    -0.0550 c6         1 ZX6       0.088300
     22 OAE         -5.3060    -0.9630     0.3380 oh         1 ZX6      -0.673000
     23 CAW         -3.5230     0.6510    -0.2150 c6         1 ZX6       0.180300
     24 OAD         -4.3910     1.2560    -1.1910 oh         1 ZX6      -0.729000
     25 HAI          0.9320     0.0210    -2.3320 ha         1 ZX6       0.106000
     26 HAG          0.6060    -2.4530    -2.5660 ha         1 ZX6       0.110000
     27 HAF          1.9670    -4.0350    -1.1930 ha         1 ZX6       0.111000
     28 HAH          3.6680    -3.1520     0.4310 ha         1 ZX6       0.115000
     29 HNAO         4.7350    -0.7710     1.4030 hn         1 ZX6       0.353000
     30 HAJ          4.4330     1.7890     1.0840 h4         1 ZX6       0.219000
     31 HAL          2.9450     3.2380    -0.6600 hc         1 ZX6       0.061700
     32 HALA         2.2340     2.3420    -2.0330 hc         1 ZX6       0.061700
     33 HNAM         0.1020     2.0520    -2.1410 hn         1 ZX6       0.304500
     34 HAK         -1.7230     2.8020     0.1370 h1         1 ZX6       0.074200
     35 HAKA        -2.1810     2.7180    -1.5750 h1         1 ZX6       0.074200
     36 HAU         -1.8690     0.2590    -1.5720 h1         1 ZX6       0.017700
     37 HNAN        -0.1700     0.1590     0.0850 hn         1 ZX6       0.432000
     38 HAT         -1.3080    -1.8500    -0.3670 h1         1 ZX6       0.011700
     39 HAA         -0.5830    -1.4790     2.5970 hc         1 ZX6       0.046033
     40 HAAA        -0.6860    -3.0280     1.7430 hc         1 ZX6       0.046033
     41 HAAB         0.5410    -1.8420     1.2800 hc         1 ZX6       0.046033
     42 HAV         -3.1950    -2.6440     0.9220 h1         1 ZX6       0.022700
     43 HOAC        -4.2750    -0.8660     2.2440 ho         1 ZX6       0.507000
     44 HAX         -3.7700    -1.3410    -1.0290 h1         1 ZX6       0.042700
     45 HOAE        -5.5970    -1.8800     0.1250 ho         1 ZX6       0.449000
     46 HAW         -3.6560     1.1490     0.7580 h1         1 ZX6       0.073700
     47 HOAD        -5.2710     0.8410    -1.0170 ho         1 ZX6       0.520000
@<TRIPOS>BOND
     1     1     2 ar  
     2     1     6 ar  
     3     1     9 1   
     4     2     3 ar  
     5     2    25 1   
     6     3     4 ar  
     7     3    26 1   
     8     4     5 ar  
     9     4    27 1   
    10     5     6 ar  
    11     5    28 1   
    12     6     7 1   
    13     7     8 1   
    14     7    29 1   
    15     8     9 2   
    16     8    30 1   
    17     9    10 1   
    18    10    11 1   
    19    10    31 1   
    20    10    32 1   
    21    11    12 2   
    22    11    13 1   
    23    13    14 1   
    24    13    33 1   
    25    14    15 1   
    26    14    34 1   
    27    14    35 1   
    28    15    16 1   
    29    15    23 1   
    30    15    36 1   
    31    16    17 1   
    32    16    37 1   
    33    17    18 1   
    34    17    19 1   
    35    17    38 1   
    36    18    39 1   
    37    18    40 1   
    38    18    41 1   
    39    19    20 1   
    40    19    21 1   
    41    19    42 1   
    42    20    43 1   
    43    21    22 1   
    44    21    23 1   
    45    21    44 1   
    46    22    45 1   
    47    23    24 1   
    48    23    46 1   
    49    24    47 1   
@<TRIPOS>SUBSTRUCTURE
     1 ZX6         1 TEMP              0 ****  ****    0 ROOT
