@<TRIPOS>MOLECULE
ZX7
   44    46     1     0     0
SMALL
No Charge or Current Charge


@<TRIPOS>ATOM
      1 OAD          3.9670     2.3310     0.6350 oh         1 ZX7      -0.713000
      2 CAV          3.7370     1.0370     0.0540 c6         1 ZX7       0.153300
      3 CAW          4.7560     0.0220     0.6570 c6         1 ZX7       0.086300
      4 OAE          6.1080     0.4480     0.3750 oh         1 ZX7      -0.671000
      5 CAU          4.5070    -1.4120     0.1000 c6         1 ZX7       0.111300
      6 OAC          4.8480    -1.4400    -1.3010 oh         1 ZX7      -0.717000
      7 CAS          3.0150    -1.8230     0.3590 c6         1 ZX7       0.178500
      8 CAA          2.6810    -3.2400    -0.1700 c3         1 ZX7      -0.082100
      9 NAM          2.0710    -0.8490    -0.2430 n7         1 ZX7      -0.868400
     10 CAT          2.2690     0.5410     0.2800 c6         1 ZX7       0.148500
     11 CAK          1.2240     1.5000    -0.3660 c3         1 ZX7       0.114000
     12 NAL         -0.1380     0.9650    -0.2740 ns         1 ZX7      -0.508900
     13 CAO         -1.2870     1.7160    -0.3040 c          1 ZX7       0.632300
     14 OAB         -1.2660     2.9330    -0.4270 o          1 ZX7      -0.591100
     15 CAP         -2.5320     0.9120    -0.1760 cc         1 ZX7      -0.147300
     16 CAJ         -3.8140     1.4550    -0.1810 cd         1 ZX7      -0.158200
     17 CAQ         -4.8060     0.4220    -0.0390 ca         1 ZX7      -0.118800
     18 CAH         -6.2040     0.4690     0.0100 ca         1 ZX7      -0.048000
     19 CAF         -6.8910    -0.7560     0.1590 ca         1 ZX7      -0.146000
     20 CAG         -6.1730    -1.9740     0.2530 ca         1 ZX7      -0.082000
     21 CAI         -4.7610    -1.9790     0.1990 ca         1 ZX7      -0.135000
     22 CAR         -4.1080    -0.7490     0.0510 ca         1 ZX7      -0.035200
     23 NAN         -2.7490    -0.4830    -0.0280 na         1 ZX7      -0.216700
     24 HOAD         4.9510     2.4010     0.6900 ho         1 ZX7       0.522000
     25 HAV          3.9090     1.0910    -1.0320 h1         1 ZX7       0.053700
     26 HAW          4.5970    -0.0100     1.7460 h1         1 ZX7       0.052700
     27 HOAE         6.7030    -0.0350     0.9940 ho         1 ZX7       0.454000
     28 HAU          5.1540    -2.1120     0.6500 h1         1 ZX7       0.038700
     29 HOAC         5.6040    -0.8090    -1.3820 ho         1 ZX7       0.519000
     30 HAS          2.8520    -1.8400     1.4480 h1         1 ZX7       0.057700
     31 HAA          3.3470    -3.9900     0.2720 hc         1 ZX7       0.045700
     32 HAAA         1.6520    -3.5220     0.0840 hc         1 ZX7       0.045700
     33 HAAB         2.7840    -3.3020    -1.2600 hc         1 ZX7       0.045700
     34 HNAM         2.2660    -0.8430    -1.2530 hn         1 ZX7       0.429000
     35 HAT          2.0730     0.5340     1.3640 h1         1 ZX7       0.073700
     36 HAK          1.2720     2.4740     0.1390 h1         1 ZX7       0.064200
     37 HAKA         1.4730     1.6480    -1.4250 h1         1 ZX7       0.064200
     38 HNAL        -0.2320    -0.0370    -0.1710 hn         1 ZX7       0.329500
     39 HAJ         -4.0300     2.5180    -0.2780 ha         1 ZX7       0.220000
     40 HAH         -6.7410     1.4130    -0.0630 ha         1 ZX7       0.117000
     41 HAF         -7.9770    -0.7640     0.2020 ha         1 ZX7       0.112000
     42 HAG         -6.7120    -2.9120     0.3680 ha         1 ZX7       0.110000
     43 HAI         -4.2010    -2.9090     0.2700 ha         1 ZX7       0.113000
     44 HNAN        -2.0280    -1.1950     0.0140 hn         1 ZX7       0.350000
@<TRIPOS>BOND
     1     1     2 1   
     2     1    24 1   
     3     2     3 1   
     4     2    10 1   
     5     2    25 1   
     6     3     4 1   
     7     3     5 1   
     8     3    26 1   
     9     4    27 1   
    10     5     6 1   
    11     5     7 1   
    12     5    28 1   
    13     6    29 1   
    14     7     8 1   
    15     7     9 1   
    16     7    30 1   
    17     8    31 1   
    18     8    32 1   
    19     8    33 1   
    20     9    10 1   
    21     9    34 1   
    22    10    11 1   
    23    10    35 1   
    24    11    12 1   
    25    11    36 1   
    26    11    37 1   
    27    12    13 1   
    28    12    38 1   
    29    13    14 2   
    30    13    15 1   
    31    15    16 2   
    32    15    23 1   
    33    16    17 1   
    34    16    39 1   
    35    17    18 ar  
    36    17    22 ar  
    37    18    19 ar  
    38    18    40 1   
    39    19    20 ar  
    40    19    41 1   
    41    20    21 ar  
    42    20    42 1   
    43    21    22 ar  
    44    21    43 1   
    45    22    23 1   
    46    23    44 1   
@<TRIPOS>SUBSTRUCTURE
     1 ZX7         1 TEMP              0 ****  ****    0 ROOT
