@<TRIPOS>MOLECULE
ZX7
   44    46     1     0     0
SMALL
abcg2


@<TRIPOS>ATOM
      1 OAD          3.7330     2.1790     0.9270 oh         1 ZX7      -0.713000
      2 CAV          3.6450     0.9800     0.1940 c6         1 ZX7       0.153300
      3 CAW          4.5450    -0.1010     0.7840 c6         1 ZX7       0.086300
      4 OAE          5.8790     0.3580     0.6740 oh         1 ZX7      -0.671000
      5 CAU          4.3610    -1.4420     0.0710 c6         1 ZX7       0.111300
      6 OAC          4.8130    -1.3740    -1.2620 oh         1 ZX7      -0.717000
      7 CAS          2.8810    -1.8310     0.0730 c6         1 ZX7       0.178500
      8 CAA          2.6180    -3.1390    -0.6550 c3         1 ZX7      -0.082100
      9 NAM          2.0360    -0.7750    -0.4680 n7         1 ZX7      -0.868400
     10 CAT          2.1990     0.4890     0.2290 c6         1 ZX7       0.148500
     11 CAK          1.2260     1.5070    -0.3530 c3         1 ZX7       0.114000
     12 NAL         -0.1090     0.9600    -0.2820 ns         1 ZX7      -0.508900
     13 CAO         -1.2180     1.7130    -0.3260 c          1 ZX7       0.632300
     14 OAB         -1.2060     2.9290    -0.4660 o          1 ZX7      -0.591100
     15 CAP         -2.4980     0.9880    -0.1800 cc         1 ZX7      -0.147300
     16 CAJ         -3.7360     1.4390    -0.5490 cd         1 ZX7      -0.158200
     17 CAQ         -4.6660     0.4110    -0.2220 ca         1 ZX7      -0.118800
     18 CAH         -6.0560     0.2770    -0.3500 ca         1 ZX7      -0.048000
     19 CAF         -6.6560    -0.8780     0.1050 ca         1 ZX7      -0.146000
     20 CAG         -5.8970    -1.9090     0.6890 ca         1 ZX7      -0.082000
     21 CAI         -4.5280    -1.8100     0.8240 ca         1 ZX7      -0.135000
     22 CAR         -3.9230    -0.6410     0.3570 ca         1 ZX7      -0.035200
     23 NAN         -2.6120    -0.2720     0.3550 na         1 ZX7      -0.216700
     24 HOAD         4.6590     2.4440     0.9560 ho         1 ZX7       0.522000
     25 HAV          3.9290     1.1450    -0.8580 h1         1 ZX7       0.053700
     26 HAW          4.2640    -0.2370     1.8390 h1         1 ZX7       0.052700
     27 HOAE         6.4290    -0.1320     1.2940 ho         1 ZX7       0.454000
     28 HAU          4.9210    -2.2070     0.6340 h1         1 ZX7       0.038700
     29 HOAC         5.6580    -0.9110    -1.2590 ho         1 ZX7       0.519000
     30 HAS          2.5950    -1.9620     1.1240 h1         1 ZX7       0.057700
     31 HAA          3.2270    -3.9420    -0.2400 hc         1 ZX7       0.045700
     32 HAAA         1.5710    -3.4240    -0.5530 hc         1 ZX7       0.045700
     33 HAAB         2.8460    -3.0600    -1.7180 hc         1 ZX7       0.045700
     34 HNAM         2.2560    -0.6470    -1.4520 hn         1 ZX7       0.429000
     35 HAT          1.9230     0.3190     1.2790 h1         1 ZX7       0.073700
     36 HAK          1.2650     2.4370     0.2110 h1         1 ZX7       0.064200
     37 HAKA         1.5050     1.7380    -1.3890 h1         1 ZX7       0.064200
     38 HNAL        -0.1610    -0.0450    -0.3820 hn         1 ZX7       0.329500
     39 HAJ         -3.9500     2.3860    -1.0180 ha         1 ZX7       0.220000
     40 HAH         -6.6450     1.0690    -0.7950 ha         1 ZX7       0.117000
     41 HAF         -7.7280    -0.9980     0.0170 ha         1 ZX7       0.112000
     42 HAG         -6.3990    -2.8010     1.0410 ha         1 ZX7       0.110000
     43 HAI         -3.9480    -2.6060     1.2730 ha         1 ZX7       0.113000
     44 HNAN        -1.8800    -0.7800     0.8240 hn         1 ZX7       0.350000
@<TRIPOS>BOND
     1     1     2 1   
     2     1    24 1   
     3     2     3 1   
     4     2    10 1   
     5     2    25 1   
     6     3     4 1   
     7     3     5 1   
     8     3    26 1   
     9     4    27 1   
    10     5     6 1   
    11     5     7 1   
    12     5    28 1   
    13     6    29 1   
    14     7     8 1   
    15     7     9 1   
    16     7    30 1   
    17     8    31 1   
    18     8    32 1   
    19     8    33 1   
    20     9    10 1   
    21     9    34 1   
    22    10    11 1   
    23    10    35 1   
    24    11    12 1   
    25    11    36 1   
    26    11    37 1   
    27    12    13 1   
    28    12    38 1   
    29    13    14 2   
    30    13    15 1   
    31    15    16 2   
    32    15    23 1   
    33    16    17 1   
    34    16    39 1   
    35    17    18 ar  
    36    17    22 ar  
    37    18    19 ar  
    38    18    40 1   
    39    19    20 ar  
    40    19    41 1   
    41    20    21 ar  
    42    20    42 1   
    43    21    22 ar  
    44    21    43 1   
    45    22    23 1   
    46    23    44 1   
@<TRIPOS>SUBSTRUCTURE
     1 ZX7         1 TEMP              0 ****  ****    0 ROOT
