@<TRIPOS>MOLECULE
ZX8
   43    45     1     0     0
SMALL
No Charge or Current Charge


@<TRIPOS>ATOM
      1 CAJ         -3.4900    -0.5230     1.3270 cc         1 ZX8      -0.149200
      2 CAQ         -4.5550     0.0580     0.5340 ca         1 ZX8      -0.129800
      3 CAH         -5.8660     0.4130     0.8770 ca         1 ZX8      -0.048000
      4 CAF         -6.6820     0.9690    -0.1350 ca         1 ZX8      -0.134000
      5 CAG         -6.1810     1.1550    -1.4490 ca         1 ZX8      -0.082000
      6 CAI         -4.8550     0.7870    -1.7680 ca         1 ZX8      -0.111000
      7 CAR         -4.0760     0.2410    -0.7430 ca         1 ZX8       0.074100
      8 OAN         -2.7840    -0.1840    -0.8060 os         1 ZX8      -0.184200
      9 CAP         -2.4250    -0.6470     0.4420 cd         1 ZX8      -0.063100
     10 CAO         -1.0720    -1.1920     0.7460 c          1 ZX8       0.644300
     11 OAB         -0.7310    -1.6090     1.8460 o          1 ZX8      -0.581100
     12 NAL         -0.2330    -1.1850    -0.3470 ns         1 ZX8      -0.503900
     13 CAK          1.1740    -1.6240    -0.3420 c3         1 ZX8       0.102000
     14 CAT          2.1880    -0.4570    -0.5590 c6         1 ZX8       0.161500
     15 NAM          1.9960     0.5880     0.4880 n7         1 ZX8      -0.850400
     16 CAS          2.9170     1.7450     0.3350 c6         1 ZX8       0.184500
     17 CAA          2.6120     2.7850     1.4430 c3         1 ZX8      -0.085100
     18 CAU          4.4340     1.3220     0.2930 c6         1 ZX8       0.155300
     19 OAC          4.9210     0.8300     1.5570 oh         1 ZX8      -0.692000
     20 CAW          4.6480     0.2300    -0.7980 c6         1 ZX8       0.088300
     21 OAE          6.0170    -0.2360    -0.7920 oh         1 ZX8      -0.670000
     22 CAV          3.6690    -0.9660    -0.5870 c6         1 ZX8       0.182300
     23 OAD          3.8940    -1.9360    -1.6260 oh         1 ZX8      -0.728000
     24 HAJ         -3.4980    -0.8060     2.3780 ha         1 ZX8       0.231000
     25 HAH         -6.2430     0.2680     1.8880 ha         1 ZX8       0.123000
     26 HAF         -7.7050     1.2560     0.0970 ha         1 ZX8       0.117000
     27 HAG         -6.8220     1.5840    -2.2160 ha         1 ZX8       0.117000
     28 HAI         -4.4530     0.9220    -2.7690 ha         1 ZX8       0.131000
     29 HNAL        -0.6310    -0.8270    -1.2070 hn         1 ZX8       0.323500
     30 HAK          1.4090    -2.1230     0.6070 h1         1 ZX8       0.077700
     31 HAKA         1.3060    -2.3620    -1.1440 h1         1 ZX8       0.077700
     32 HAT          1.9630    -0.0040    -1.5370 h1         1 ZX8       0.022700
     33 HNAM         1.0270     0.9220     0.4430 hn         1 ZX8       0.426000
     34 HAS          2.6840     2.2280    -0.6260 h1         1 ZX8       0.012700
     35 HAA          2.7710     2.3660     2.4440 hc         1 ZX8       0.045700
     36 HAAA         3.2580     3.6650     1.3430 hc         1 ZX8       0.045700
     37 HAAB         1.5730     3.1310     1.3870 hc         1 ZX8       0.045700
     38 HAU          5.0190     2.2080     0.0040 h1         1 ZX8       0.024700
     39 HOAC         5.6550     0.2210     1.3090 ho         1 ZX8       0.509000
     40 HAW          4.4170     0.6840    -1.7740 h1         1 ZX8       0.043700
     41 HOAE         6.5650     0.4570    -1.2270 ho         1 ZX8       0.450000
     42 HAV          3.8850    -1.4180     0.3940 h1         1 ZX8       0.073700
     43 HOAD         4.8740    -1.9270    -1.7530 ho         1 ZX8       0.522000
@<TRIPOS>BOND
     1     1     2 1   
     2     1     9 2   
     3     1    24 1   
     4     2     3 ar  
     5     2     7 ar  
     6     3     4 ar  
     7     3    25 1   
     8     4     5 ar  
     9     4    26 1   
    10     5     6 ar  
    11     5    27 1   
    12     6     7 ar  
    13     6    28 1   
    14     7     8 1   
    15     8     9 1   
    16     9    10 1   
    17    10    11 2   
    18    10    12 1   
    19    12    13 1   
    20    12    29 1   
    21    13    14 1   
    22    13    30 1   
    23    13    31 1   
    24    14    15 1   
    25    14    22 1   
    26    14    32 1   
    27    15    16 1   
    28    15    33 1   
    29    16    17 1   
    30    16    18 1   
    31    16    34 1   
    32    17    35 1   
    33    17    36 1   
    34    17    37 1   
    35    18    19 1   
    36    18    20 1   
    37    18    38 1   
    38    19    39 1   
    39    20    21 1   
    40    20    22 1   
    41    20    40 1   
    42    21    41 1   
    43    22    23 1   
    44    22    42 1   
    45    23    43 1   
@<TRIPOS>SUBSTRUCTURE
     1 ZX8         1 TEMP              0 ****  ****    0 ROOT
