@<TRIPOS>MOLECULE
ZX8
   43    45     1     0     0
SMALL
abcg2


@<TRIPOS>ATOM
      1 CAJ         -3.5100    -0.7960     1.2590 cc         1 ZX8      -0.149200
      2 CAQ         -4.5450    -0.1030     0.5520 ca         1 ZX8      -0.129800
      3 CAH         -5.8940     0.1750     0.7890 ca         1 ZX8      -0.048000
      4 CAF         -6.5860     0.8990    -0.1630 ca         1 ZX8      -0.134000
      5 CAG         -5.9600     1.3450    -1.3360 ca         1 ZX8      -0.082000
      6 CAI         -4.6250     1.0810    -1.5930 ca         1 ZX8      -0.111000
      7 CAR         -3.9510     0.3530    -0.6270 ca         1 ZX8       0.074100
      8 OAN         -2.6540    -0.0210    -0.6670 os         1 ZX8      -0.184200
      9 CAP         -2.4090    -0.7130     0.4800 cd         1 ZX8      -0.063100
     10 CAO         -1.0580    -1.2590     0.7190 c          1 ZX8       0.644300
     11 OAB         -0.8180    -1.8160     1.7810 o          1 ZX8      -0.581100
     12 NAL         -0.1780    -1.0960    -0.2800 ns         1 ZX8      -0.503900
     13 CAK          1.1900    -1.5680    -0.2470 c3         1 ZX8       0.102000
     14 CAT          2.1700    -0.4350    -0.5360 c6         1 ZX8       0.161500
     15 NAM          2.0530     0.5890     0.4820 n7         1 ZX8      -0.850400
     16 CAS          2.8850     1.7540     0.2220 c6         1 ZX8       0.184500
     17 CAA          2.5940     2.8430     1.2420 c3         1 ZX8      -0.085100
     18 CAU          4.3510     1.3390     0.2130 c6         1 ZX8       0.155300
     19 OAC          4.7420     0.9390     1.5030 oh         1 ZX8      -0.692000
     20 CAW          4.5540     0.2150    -0.8040 c6         1 ZX8       0.088300
     21 OAE          5.8750    -0.2890    -0.7550 oh         1 ZX8      -0.670000
     22 CAV          3.6070    -0.9500    -0.5450 c6         1 ZX8       0.182300
     23 OAD          3.7230    -1.9340    -1.5450 oh         1 ZX8      -0.728000
     24 HAJ         -3.5810    -1.2930     2.2130 ha         1 ZX8       0.231000
     25 HAH         -6.3810    -0.1680     1.6920 ha         1 ZX8       0.123000
     26 HAF         -7.6310     1.1290    -0.0040 ha         1 ZX8       0.117000
     27 HAG         -6.5330     1.9100    -2.0590 ha         1 ZX8       0.117000
     28 HAI         -4.1390     1.4240    -2.4960 ha         1 ZX8       0.131000
     29 HNAL        -0.4950    -0.6880    -1.1460 hn         1 ZX8       0.323500
     30 HAK          1.3900    -1.9840     0.7390 h1         1 ZX8       0.077700
     31 HAKA         1.3140    -2.3650    -0.9810 h1         1 ZX8       0.077700
     32 HAT          1.9510    -0.0390    -1.5470 h1         1 ZX8       0.022700
     33 HNAM         1.0870     0.8880     0.5410 hn         1 ZX8       0.426000
     34 HAS          2.6860     2.1670    -0.7830 h1         1 ZX8       0.012700
     35 HAA          2.7720     2.4930     2.2580 hc         1 ZX8       0.045700
     36 HAAA         3.2230     3.7160     1.0620 hc         1 ZX8       0.045700
     37 HAAB         1.5550     3.1690     1.1720 hc         1 ZX8       0.045700
     38 HAU          4.9400     2.2080    -0.1220 h1         1 ZX8       0.024700
     39 HOAC         5.6210     0.5520     1.4300 ho         1 ZX8       0.509000
     40 HAW          4.3250     0.6160    -1.8020 h1         1 ZX8       0.043700
     41 HOAE         6.4560     0.3220    -1.2190 ho         1 ZX8       0.450000
     42 HAV          3.8230    -1.3670     0.4500 h1         1 ZX8       0.073700
     43 HOAD         4.6380    -2.2340    -1.5620 ho         1 ZX8       0.522000
@<TRIPOS>BOND
     1     1     2 1   
     2     1     9 2   
     3     1    24 1   
     4     2     3 ar  
     5     2     7 ar  
     6     3     4 ar  
     7     3    25 1   
     8     4     5 ar  
     9     4    26 1   
    10     5     6 ar  
    11     5    27 1   
    12     6     7 ar  
    13     6    28 1   
    14     7     8 1   
    15     8     9 1   
    16     9    10 1   
    17    10    11 2   
    18    10    12 1   
    19    12    13 1   
    20    12    29 1   
    21    13    14 1   
    22    13    30 1   
    23    13    31 1   
    24    14    15 1   
    25    14    22 1   
    26    14    32 1   
    27    15    16 1   
    28    15    33 1   
    29    16    17 1   
    30    16    18 1   
    31    16    34 1   
    32    17    35 1   
    33    17    36 1   
    34    17    37 1   
    35    18    19 1   
    36    18    20 1   
    37    18    38 1   
    38    19    39 1   
    39    20    21 1   
    40    20    22 1   
    41    20    40 1   
    42    21    41 1   
    43    22    23 1   
    44    22    42 1   
    45    23    43 1   
@<TRIPOS>SUBSTRUCTURE
     1 ZX8         1 TEMP              0 ****  ****    0 ROOT
