@<TRIPOS>MOLECULE
ZX9
   56    58     1     0     0
SMALL
No Charge or Current Charge


@<TRIPOS>ATOM
      1 CAI         -2.0790     0.6280    -2.1220 ca         1 ZX9      -0.102500
      2 CAG         -2.3540     1.9120    -2.6240 ca         1 ZX9      -0.112500
      3 CAF         -2.9480     2.8790    -1.7970 ca         1 ZX9      -0.110000
      4 CAH         -3.2630     2.5620    -0.4660 ca         1 ZX9      -0.112500
      5 CAJ         -2.9870     1.2780     0.0370 ca         1 ZX9      -0.102500
      6 CAS         -2.3970     0.2970    -0.7880 ca         1 ZX9      -0.087300
      7 CAZ         -2.0730    -1.1040    -0.2530 c3         1 ZX9      -0.089400
      8 CAX         -3.2470    -1.7940     0.5000 c5         1 ZX9      -0.051700
      9 CAM         -2.9950    -3.2810     0.8630 c5         1 ZX9      -0.076900
     10 CAK         -4.3890    -3.7270     1.3870 c5         1 ZX9      -0.078900
     11 CAL         -5.4130    -2.8580     0.5850 c5         1 ZX9      -0.078900
     12 CAN         -4.5380    -1.9670    -0.3410 c5         1 ZX9      -0.076900
     13 CAR         -0.7940    -1.0490     0.6110 c          1 ZX9       0.606100
     14 OAB         -0.7410    -0.4660     1.6860 o          1 ZX9      -0.585100
     15 NAP          0.3010    -1.6880     0.0680 ns         1 ZX9      -0.514900
     16 CAO          1.6660    -1.6430     0.6230 c3         1 ZX9       0.105000
     17 CAY          2.6140    -0.6870    -0.1690 c6         1 ZX9       0.158500
     18 NAQ          2.0360     0.6860    -0.2120 n7         1 ZX9      -0.850400
     19 CAT          2.8620     1.6440    -0.9900 c6         1 ZX9       0.186500
     20 CAA          2.1500     3.0200    -1.0160 c3         1 ZX9      -0.087100
     21 CAU          4.3480     1.7270    -0.4750 c6         1 ZX9       0.156300
     22 OAC          4.4660     2.3510     0.8190 oh         1 ZX9      -0.691000
     23 CAV          4.9680     0.2980    -0.4100 c6         1 ZX9       0.088300
     24 OAD          6.3000     0.3430     0.1510 oh         1 ZX9      -0.671000
     25 CAW          4.0650    -0.6670     0.4200 c6         1 ZX9       0.180300
     26 OAE          4.6690    -1.9740     0.4300 oh         1 ZX9      -0.729000
     27 HAI         -1.6170    -0.1090    -2.7750 ha         1 ZX9       0.120500
     28 HAG         -2.1060     2.1560    -3.6550 ha         1 ZX9       0.114500
     29 HAF         -3.1600     3.8720    -2.1860 ha         1 ZX9       0.113000
     30 HAH         -3.7180     3.3110     0.1780 ha         1 ZX9       0.114500
     31 HAJ         -3.2270     1.0560     1.0740 ha         1 ZX9       0.120500
     32 HAZ         -1.8420    -1.7360    -1.1190 hc         1 ZX9       0.055700
     33 HAX         -3.4490    -1.2120     1.4080 hc         1 ZX9       0.070700
     34 HAM         -2.6920    -3.8680    -0.0140 hc         1 ZX9       0.044950
     35 HAMA        -2.2130    -3.4050     1.6210 hc         1 ZX9       0.044950
     36 HAK         -4.5520    -4.8000     1.2390 hc         1 ZX9       0.041200
     37 HAKA        -4.4830    -3.5370     2.4630 hc         1 ZX9       0.041200
     38 HAL         -6.1140    -3.4730     0.0090 hc         1 ZX9       0.041200
     39 HALA        -6.0150    -2.2450     1.2670 hc         1 ZX9       0.041200
     40 HAN         -5.0230    -1.0110    -0.5690 hc         1 ZX9       0.044950
     41 HANA        -4.3350    -2.4620    -1.2980 hc         1 ZX9       0.044950
     42 HNAP         0.1620    -2.1530    -0.8210 hn         1 ZX9       0.305500
     43 HAO          1.6340    -1.3240     1.6730 h1         1 ZX9       0.076200
     44 HAOA         2.0840    -2.6580     0.5980 h1         1 ZX9       0.076200
     45 HAY          2.6680    -1.0640    -1.2010 h1         1 ZX9       0.019700
     46 HNAQ         1.0990     0.6360    -0.6270 hn         1 ZX9       0.428000
     47 HAT          2.8940     1.2830    -2.0290 h1         1 ZX9       0.011700
     48 HAA          2.0320     3.4320    -0.0070 hc         1 ZX9       0.045700
     49 HAAA         2.7200     3.7440    -1.6100 hc         1 ZX9       0.045700
     50 HAAB         1.1510     2.9400    -1.4630 hc         1 ZX9       0.045700
     51 HAU          4.9230     2.3120    -1.2080 h1         1 ZX9       0.023700
     52 HOAC         5.2810     1.9500     1.2030 ho         1 ZX9       0.508000
     53 HAV          5.0150    -0.0910    -1.4390 h1         1 ZX9       0.043700
     54 HOAD         6.9020     0.6880    -0.5490 ho         1 ZX9       0.449000
     55 HAW          4.0020    -0.2800     1.4490 h1         1 ZX9       0.074700
     56 HOAE         5.6370    -1.7880     0.4980 ho         1 ZX9       0.521000
@<TRIPOS>BOND
     1     1     2 ar  
     2     1     6 ar  
     3     1    27 1   
     4     2     3 ar  
     5     2    28 1   
     6     3     4 ar  
     7     3    29 1   
     8     4     5 ar  
     9     4    30 1   
    10     5     6 ar  
    11     5    31 1   
    12     6     7 1   
    13     7     8 1   
    14     7    13 1   
    15     7    32 1   
    16     8     9 1   
    17     8    12 1   
    18     8    33 1   
    19     9    10 1   
    20     9    34 1   
    21     9    35 1   
    22    10    11 1   
    23    10    36 1   
    24    10    37 1   
    25    11    12 1   
    26    11    38 1   
    27    11    39 1   
    28    12    40 1   
    29    12    41 1   
    30    13    14 2   
    31    13    15 1   
    32    15    16 1   
    33    15    42 1   
    34    16    17 1   
    35    16    43 1   
    36    16    44 1   
    37    17    18 1   
    38    17    25 1   
    39    17    45 1   
    40    18    19 1   
    41    18    46 1   
    42    19    20 1   
    43    19    21 1   
    44    19    47 1   
    45    20    48 1   
    46    20    49 1   
    47    20    50 1   
    48    21    22 1   
    49    21    23 1   
    50    21    51 1   
    51    22    52 1   
    52    23    24 1   
    53    23    25 1   
    54    23    53 1   
    55    24    54 1   
    56    25    26 1   
    57    25    55 1   
    58    26    56 1   
@<TRIPOS>SUBSTRUCTURE
     1 ZX9         1 TEMP              0 ****  ****    0 ROOT
