@<TRIPOS>MOLECULE
ZX9
   56    58     1     0     0
SMALL
abcg2


@<TRIPOS>ATOM
      1 CAI         -1.9490     0.0830    -2.2610 ca         1 ZX9      -0.102500
      2 CAG         -1.9890     1.3350    -2.8620 ca         1 ZX9      -0.112500
      3 CAF         -2.1020     2.4780    -2.0830 ca         1 ZX9      -0.110000
      4 CAH         -2.1760     2.3580    -0.7000 ca         1 ZX9      -0.112500
      5 CAJ         -2.1330     1.1070    -0.1030 ca         1 ZX9      -0.102500
      6 CAS         -2.0240    -0.0480    -0.8770 ca         1 ZX9      -0.087300
      7 CAZ         -1.9650    -1.4170    -0.2320 c3         1 ZX9      -0.089400
      8 CAX         -3.1950    -1.7320     0.6140 c5         1 ZX9      -0.051700
      9 CAM         -3.1780    -3.1460     1.2180 c5         1 ZX9      -0.076900
     10 CAK         -4.6560    -3.5780     1.3390 c5         1 ZX9      -0.078900
     11 CAL         -5.4790    -2.4280     0.7340 c5         1 ZX9      -0.078900
     12 CAN         -4.5000    -1.6990    -0.1800 c5         1 ZX9      -0.076900
     13 CAR         -0.6710    -1.4800     0.5730 c          1 ZX9       0.606100
     14 OAB         -0.6190    -1.1780     1.7550 o          1 ZX9      -0.585100
     15 NAP          0.4030    -1.8380    -0.1540 ns         1 ZX9      -0.514900
     16 CAO          1.7720    -1.7720     0.3030 c3         1 ZX9       0.105000
     17 CAY          2.5350    -0.6290    -0.3670 c6         1 ZX9       0.158500
     18 NAQ          1.8770     0.6350    -0.0960 n7         1 ZX9      -0.850400
     19 CAT          2.4960     1.7660    -0.7690 c6         1 ZX9       0.186500
     20 CAA          1.6600     3.0170    -0.5530 c3         1 ZX9      -0.087100
     21 CAU          3.9290     1.9300    -0.2780 c6         1 ZX9       0.156300
     22 OAC          3.9310     2.3130     1.0750 oh         1 ZX9      -0.691000
     23 CAV          4.6890     0.6210    -0.4880 c6         1 ZX9       0.088300
     24 OAD          5.9860     0.6810     0.0760 oh         1 ZX9      -0.671000
     25 CAW          3.9650    -0.5520     0.1600 c6         1 ZX9       0.180300
     26 OAE          4.6120    -1.7710    -0.1270 oh         1 ZX9      -0.729000
     27 HAI         -1.8670    -0.8040    -2.8790 ha         1 ZX9       0.120500
     28 HAG         -1.9340     1.4150    -3.9400 ha         1 ZX9       0.114500
     29 HAF         -2.1350     3.4540    -2.5480 ha         1 ZX9       0.113000
     30 HAH         -2.2610     3.2430    -0.0830 ha         1 ZX9       0.114500
     31 HAJ         -2.1870     1.0310     0.9760 ha         1 ZX9       0.120500
     32 HAZ         -1.9130    -2.1620    -1.0340 hc         1 ZX9       0.055700
     33 HAX         -3.2700    -1.0000     1.4240 hc         1 ZX9       0.070700
     34 HAM         -2.6380    -3.8260     0.5530 hc         1 ZX9       0.044950
     35 HAMA        -2.6560    -3.1680     2.1750 hc         1 ZX9       0.044950
     36 HAK         -4.8300    -4.5030     0.7880 hc         1 ZX9       0.041200
     37 HAKA        -4.9420    -3.7730     2.3730 hc         1 ZX9       0.041200
     38 HAL         -6.3720    -2.7770     0.2120 hc         1 ZX9       0.041200
     39 HALA        -5.8170    -1.7500     1.5230 hc         1 ZX9       0.041200
     40 HAN         -4.8200    -0.6880    -0.4380 hc         1 ZX9       0.044950
     41 HANA        -4.3780    -2.2490    -1.1200 hc         1 ZX9       0.044950
     42 HNAP         0.2560    -2.0910    -1.1190 hn         1 ZX9       0.305500
     43 HAO          1.7710    -1.6340     1.3830 h1         1 ZX9       0.076200
     44 HAOA         2.2630    -2.7200     0.0870 h1         1 ZX9       0.076200
     45 HAY          2.5880    -0.8400    -1.4520 h1         1 ZX9       0.019700
     46 HNAQ         0.9080     0.5780    -0.3880 hn         1 ZX9       0.428000
     47 HAT          2.5710     1.5930    -1.8570 h1         1 ZX9       0.011700
     48 HAA          1.5570     3.2460     0.5070 hc         1 ZX9       0.045700
     49 HAAA         2.1120     3.8750    -1.0500 hc         1 ZX9       0.045700
     50 HAAB         0.6580     2.8850    -0.9670 hc         1 ZX9       0.045700
     51 HAU          4.4060     2.7040    -0.9020 h1         1 ZX9       0.023700
     52 HOAC         4.8420     2.2620     1.3850 ho         1 ZX9       0.508000
     53 HAV          4.7440     0.4300    -1.5690 h1         1 ZX9       0.043700
     54 HOAD         6.5620     1.1660    -0.5230 ho         1 ZX9       0.449000
     55 HAW          3.9150    -0.3790     1.2460 h1         1 ZX9       0.074700
     56 HOAE         5.5320    -1.6880     0.1470 ho         1 ZX9       0.521000
@<TRIPOS>BOND
     1     1     2 ar  
     2     1     6 ar  
     3     1    27 1   
     4     2     3 ar  
     5     2    28 1   
     6     3     4 ar  
     7     3    29 1   
     8     4     5 ar  
     9     4    30 1   
    10     5     6 ar  
    11     5    31 1   
    12     6     7 1   
    13     7     8 1   
    14     7    13 1   
    15     7    32 1   
    16     8     9 1   
    17     8    12 1   
    18     8    33 1   
    19     9    10 1   
    20     9    34 1   
    21     9    35 1   
    22    10    11 1   
    23    10    36 1   
    24    10    37 1   
    25    11    12 1   
    26    11    38 1   
    27    11    39 1   
    28    12    40 1   
    29    12    41 1   
    30    13    14 2   
    31    13    15 1   
    32    15    16 1   
    33    15    42 1   
    34    16    17 1   
    35    16    43 1   
    36    16    44 1   
    37    17    18 1   
    38    17    25 1   
    39    17    45 1   
    40    18    19 1   
    41    18    46 1   
    42    19    20 1   
    43    19    21 1   
    44    19    47 1   
    45    20    48 1   
    46    20    49 1   
    47    20    50 1   
    48    21    22 1   
    49    21    23 1   
    50    21    51 1   
    51    22    52 1   
    52    23    24 1   
    53    23    25 1   
    54    23    53 1   
    55    24    54 1   
    56    25    26 1   
    57    25    55 1   
    58    26    56 1   
@<TRIPOS>SUBSTRUCTURE
     1 ZX9         1 TEMP              0 ****  ****    0 ROOT
