@<TRIPOS>MOLECULE
ZXA
   33    33     1     0     0
SMALL
bcc


@<TRIPOS>ATOM
      1 CAA          4.5630    -1.2010    -0.3450 c3         1 ZXA      -0.183100
      2 CAJ          3.4470    -0.4840     0.3750 c          1 ZXA       0.668100
      3 OAC          3.3940    -0.4360     1.5970 o          1 ZXA      -0.594100
      4 NAH          2.5480     0.1110    -0.4310 ns         1 ZXA      -0.585900
      5 CAG          1.4420     0.9250     0.0190 c3         1 ZXA       0.100000
      6 CAL          0.1030     0.3780    -0.4690 c6         1 ZXA       0.162500
      7 NAI         -0.1080    -0.9510     0.0680 n7         1 ZXA      -0.795200
      8 CAK         -1.3170    -1.5880    -0.4250 c6         1 ZXA       0.185500
      9 CAB         -1.3770    -3.0300     0.0500 c3         1 ZXA      -0.085100
     10 CAM         -2.5310    -0.7760     0.0110 c6         1 ZXA       0.133100
     11 OAD         -2.6750    -0.8420     1.4090 oh         1 ZXA      -0.569800
     12 CAO         -2.3720     0.6680    -0.4650 c6         1 ZXA       0.066100
     13 OAF         -3.4060     1.4930     0.0370 oh         1 ZXA      -0.608800
     14 CAN         -1.0480     1.2710    -0.0130 c6         1 ZXA       0.159100
     15 OAE         -0.8620     2.5540    -0.5660 oh         1 ZXA      -0.606800
     16 HAA          4.8070    -2.1250     0.1770 hc         1 ZXA       0.059033
     17 HAAA         4.3270    -1.4350    -1.3820 hc         1 ZXA       0.059033
     18 HAAB         5.4560    -0.5740    -0.3360 hc         1 ZXA       0.059033
     19 HNAH         2.7020     0.0600    -1.4260 hn         1 ZXA       0.303500
     20 HAG          1.4540     0.9420     1.1090 h1         1 ZXA       0.076200
     21 HAGA         1.5760     1.9480    -0.3330 h1         1 ZXA       0.076200
     22 HAL          0.1110     0.3810    -1.5760 h1         1 ZXA       0.020700
     23 HNAI         0.6880    -1.5320    -0.1680 hn         1 ZXA       0.369800
     24 HAK         -1.3450    -1.5950    -1.5290 h1         1 ZXA       0.011700
     25 HAB         -1.3460    -3.0940     1.1370 hc         1 ZXA       0.044700
     26 HABA        -2.2910    -3.5150    -0.2960 hc         1 ZXA       0.044700
     27 HABB        -0.5340    -3.5990    -0.3450 hc         1 ZXA       0.044700
     28 HAM         -3.4140    -1.2030    -0.4920 h1         1 ZXA       0.024700
     29 HOAD        -3.3460    -0.1970     1.6570 ho         1 ZXA       0.410000
     30 HAO         -2.3800     0.6650    -1.5650 h1         1 ZXA       0.042700
     31 HOAF        -4.2060     1.3330    -0.4750 ho         1 ZXA       0.411000
     32 HAN         -1.0310     1.3090     1.0860 h1         1 ZXA       0.073700
     33 HOAE        -1.6040     3.1040    -0.2940 ho         1 ZXA       0.422000
@<TRIPOS>BOND
     1     1     2 1   
     2     1    16 1   
     3     1    17 1   
     4     1    18 1   
     5     2     3 2   
     6     2     4 1   
     7     4     5 1   
     8     4    19 1   
     9     5     6 1   
    10     5    20 1   
    11     5    21 1   
    12     6     7 1   
    13     6    14 1   
    14     6    22 1   
    15     7     8 1   
    16     7    23 1   
    17     8     9 1   
    18     8    10 1   
    19     8    24 1   
    20     9    25 1   
    21     9    26 1   
    22     9    27 1   
    23    10    11 1   
    24    10    12 1   
    25    10    28 1   
    26    11    29 1   
    27    12    13 1   
    28    12    14 1   
    29    12    30 1   
    30    13    31 1   
    31    14    15 1   
    32    14    32 1   
    33    15    33 1   
@<TRIPOS>SUBSTRUCTURE
     1 ZXA         1 TEMP              0 ****  ****    0 ROOT
