@<TRIPOS>MOLECULE
ZXA
   33    33     1     0     0
SMALL
No Charge or Current Charge


@<TRIPOS>ATOM
      1 CAA          4.6000    -1.2990    -0.3310 c3         1 ZXA      -0.183100
      2 CAJ          3.4970    -0.5560     0.4110 c          1 ZXA       0.601100
      3 OAC          3.3670    -0.6150     1.6240 o          1 ZXA      -0.594100
      4 NAH          2.6660     0.1900    -0.3950 ns         1 ZXA      -0.518900
      5 CAG          1.5100     0.9770     0.0760 c3         1 ZXA       0.100000
      6 CAL          0.1370     0.4220    -0.4210 c6         1 ZXA       0.162500
      7 NAI         -0.0290    -0.9940     0.0180 n7         1 ZXA      -0.850400
      8 CAK         -1.3060    -1.6020    -0.4400 c6         1 ZXA       0.185500
      9 CAB         -1.3640    -3.0770     0.0310 c3         1 ZXA      -0.085100
     10 CAM         -2.5720    -0.7700    -0.0070 c6         1 ZXA       0.156300
     11 OAD         -2.8180    -0.8090     1.4130 oh         1 ZXA      -0.692000
     12 CAO         -2.4100     0.7130    -0.4570 c6         1 ZXA       0.089300
     13 OAF         -3.5210     1.5130     0.0100 oh         1 ZXA      -0.671000
     14 CAN         -1.0630     1.3070     0.0570 c6         1 ZXA       0.182300
     15 OAE         -0.9540     2.6680    -0.4000 oh         1 ZXA      -0.729000
     16 HAA          5.2430    -1.8800     0.3400 hc         1 ZXA       0.059033
     17 HAAA         4.1470    -1.9300    -1.1050 hc         1 ZXA       0.059033
     18 HAAB         5.1780    -0.5820    -0.9240 hc         1 ZXA       0.059033
     19 HNAH         2.8690     0.1800    -1.3880 hn         1 ZXA       0.303500
     20 HAG          1.4990     1.0110     1.1730 h1         1 ZXA       0.076200
     21 HAGA         1.6260     2.0070    -0.2860 h1         1 ZXA       0.076200
     22 HAL          0.1570     0.4350    -1.5210 h1         1 ZXA       0.020700
     23 HNAI         0.7560    -1.5440    -0.3470 hn         1 ZXA       0.425000
     24 HAK         -1.2870    -1.6210    -1.5400 h1         1 ZXA       0.011700
     25 HAB         -1.3360    -3.1520     1.1250 hc         1 ZXA       0.044700
     26 HABA        -2.2840    -3.5620    -0.3140 hc         1 ZXA       0.044700
     27 HABB        -0.5190    -3.6530    -0.3650 hc         1 ZXA       0.044700
     28 HAM         -3.4430    -1.1900    -0.5320 h1         1 ZXA       0.024700
     29 HOAD        -3.2910     0.0370     1.5970 ho         1 ZXA       0.509000
     30 HAO         -2.3840     0.7260    -1.5580 h1         1 ZXA       0.042700
     31 HOAF        -4.2920     1.3110    -0.5690 ho         1 ZXA       0.450000
     32 HAN         -1.0750     1.2860     1.1570 h1         1 ZXA       0.073700
     33 HOAE        -1.8760     3.0180    -0.3290 ho         1 ZXA       0.521000
@<TRIPOS>BOND
     1     1     2 1   
     2     1    16 1   
     3     1    17 1   
     4     1    18 1   
     5     2     3 2   
     6     2     4 1   
     7     4     5 1   
     8     4    19 1   
     9     5     6 1   
    10     5    20 1   
    11     5    21 1   
    12     6     7 1   
    13     6    14 1   
    14     6    22 1   
    15     7     8 1   
    16     7    23 1   
    17     8     9 1   
    18     8    10 1   
    19     8    24 1   
    20     9    25 1   
    21     9    26 1   
    22     9    27 1   
    23    10    11 1   
    24    10    12 1   
    25    10    28 1   
    26    11    29 1   
    27    12    13 1   
    28    12    14 1   
    29    12    30 1   
    30    13    31 1   
    31    14    15 1   
    32    14    32 1   
    33    15    33 1   
@<TRIPOS>SUBSTRUCTURE
     1 ZXA         1 TEMP              0 ****  ****    0 ROOT
