@<TRIPOS>MOLECULE
ZXB
   33    34     1     0     0
SMALL
bcc


@<TRIPOS>ATOM
      1 CAG         -2.8500     0.2430    -1.1450 ca         1 ZXB      -0.118500
      2 CAE         -4.0610     0.8740    -0.8950 ca         1 ZXB      -0.129000
      3 CAD         -4.6910     0.7130     0.3330 ca         1 ZXB      -0.130000
      4 CAF         -4.1010    -0.0860     1.3040 ca         1 ZXB      -0.129000
      5 CAH         -2.8910    -0.7170     1.0460 ca         1 ZXB      -0.118500
      6 CAL         -2.2480    -0.5610    -0.1810 ca         1 ZXB      -0.067300
      7 CAJ         -0.9240    -1.2230    -0.4370 c3         1 ZXB      -0.021100
      8 CAP          0.2460    -0.4250     0.1440 c6         1 ZXB       0.176500
      9 NAK          0.3210     0.8840    -0.4770 n7         1 ZXB      -0.787200
     10 CAI          1.4050     1.6850     0.0560 c6         1 ZXB       0.129800
     11 CAM          2.7670     0.9930    -0.0270 c6         1 ZXB       0.070100
     12 OAA          3.7820     1.7320     0.6250 oh         1 ZXB      -0.604800
     13 CAN          2.6910    -0.3650     0.6560 c6         1 ZXB       0.113100
     14 OAB          3.8890    -1.0970     0.5180 oh         1 ZXB      -0.610800
     15 CAO          1.5610    -1.2060     0.0650 c6         1 ZXB       0.116100
     16 OAC          1.8120    -1.5330    -1.2820 oh         1 ZXB      -0.605800
     17 HAG         -2.3690     0.3730    -2.1070 ha         1 ZXB       0.125000
     18 HAE         -4.5140     1.4930    -1.6590 ha         1 ZXB       0.127500
     19 HAD         -5.6360     1.2020     0.5300 ha         1 ZXB       0.128000
     20 HAF         -4.5840    -0.2200     2.2640 ha         1 ZXB       0.127500
     21 HAH         -2.4400    -1.3430     1.8080 ha         1 ZXB       0.125000
     22 HAJ         -0.9160    -2.2220     0.0050 hc         1 ZXB       0.056700
     23 HAJA        -0.7770    -1.3560    -1.5120 hc         1 ZXB       0.056700
     24 HAP          0.0490    -0.2670     1.2120 h1         1 ZXB       0.065700
     25 HNAK         0.4290     0.7800    -1.4800 hn         1 ZXB       0.365800
     26 HAI          1.4400     2.6380    -0.4780 h1         1 ZXB       0.060200
     27 HAIA         1.1870     1.9160     1.1050 h1         1 ZXB       0.060200
     28 HAM          3.0220     0.8410    -1.0850 h1         1 ZXB       0.046700
     29 HOAA         4.0380     2.4660     0.0590 ho         1 ZXB       0.411000
     30 HAN          2.4590    -0.1990     1.7210 h1         1 ZXB       0.054700
     31 HOAB         4.6250    -0.5010     0.6950 ho         1 ZXB       0.427000
     32 HAO          1.4600    -2.1180     0.6750 h1         1 ZXB       0.052700
     33 HOAC         2.7080    -1.8810    -1.3410 ho         1 ZXB       0.424000
@<TRIPOS>BOND
     1     1     2 ar  
     2     1     6 ar  
     3     1    17 1   
     4     2     3 ar  
     5     2    18 1   
     6     3     4 ar  
     7     3    19 1   
     8     4     5 ar  
     9     4    20 1   
    10     5     6 ar  
    11     5    21 1   
    12     6     7 1   
    13     7     8 1   
    14     7    22 1   
    15     7    23 1   
    16     8     9 1   
    17     8    15 1   
    18     8    24 1   
    19     9    10 1   
    20     9    25 1   
    21    10    11 1   
    22    10    26 1   
    23    10    27 1   
    24    11    12 1   
    25    11    13 1   
    26    11    28 1   
    27    12    29 1   
    28    13    14 1   
    29    13    15 1   
    30    13    30 1   
    31    14    31 1   
    32    15    16 1   
    33    15    32 1   
    34    16    33 1   
@<TRIPOS>SUBSTRUCTURE
     1 ZXB         1 TEMP              0 ****  ****    0 ROOT
