@<TRIPOS>MOLECULE
ZXB
   33    34     1     0     0
SMALL
No Charge or Current Charge


@<TRIPOS>ATOM
      1 CAG         -3.0250     0.1840    -1.2090 ca         1 ZXB      -0.100500
      2 CAE         -4.2690     0.7760    -0.9270 ca         1 ZXB      -0.111000
      3 CAD         -4.8220     0.6730     0.3610 ca         1 ZXB      -0.112000
      4 CAF         -4.1300    -0.0220     1.3660 ca         1 ZXB      -0.111000
      5 CAH         -2.8860    -0.6140     1.0850 ca         1 ZXB      -0.100500
      6 CAL         -2.3250    -0.5130    -0.2040 ca         1 ZXB      -0.067300
      7 CAJ         -0.9770    -1.1640    -0.5060 c3         1 ZXB      -0.021100
      8 CAP          0.2410    -0.4130     0.1130 c6         1 ZXB       0.176500
      9 NAK          0.4070     0.9200    -0.5330 n7         1 ZXB      -0.842400
     10 CAI          1.5030     1.7170     0.0820 c6         1 ZXB       0.129800
     11 CAM          2.8700     0.9680     0.0210 c6         1 ZXB       0.093300
     12 OAA          3.9140     1.7160     0.6790 oh         1 ZXB      -0.727000
     13 CAN          2.7360    -0.4450     0.6700 c6         1 ZXB       0.136300
     14 OAB          3.9790    -1.1570     0.5340 oh         1 ZXB      -0.673000
     15 CAO          1.5650    -1.2530     0.0310 c6         1 ZXB       0.139300
     16 OAC          1.9070    -1.6060    -1.3270 oh         1 ZXB      -0.728000
     17 HAG         -2.6040     0.2710    -2.2080 ha         1 ZXB       0.107000
     18 HAE         -4.8030     1.3140    -1.7070 ha         1 ZXB       0.109500
     19 HAD         -5.7840     1.1310     0.5780 ha         1 ZXB       0.110000
     20 HAF         -4.5570    -0.1030     2.3640 ha         1 ZXB       0.109500
     21 HAH         -2.3580    -1.1520     1.8690 ha         1 ZXB       0.107000
     22 HAJ         -0.9950    -2.1910    -0.1210 hc         1 ZXB       0.056700
     23 HAJA        -0.8410    -1.2640    -1.5890 hc         1 ZXB       0.056700
     24 HAP          0.0140    -0.2590     1.1800 h1         1 ZXB       0.065700
     25 HNAK         0.6470     0.7450    -1.5170 hn         1 ZXB       0.421000
     26 HAI          1.5880     2.6810    -0.4430 h1         1 ZXB       0.060200
     27 HAIA         1.2510     1.9360     1.1310 h1         1 ZXB       0.060200
     28 HAM          3.1290     0.8360    -1.0410 h1         1 ZXB       0.046700
     29 HOAA         4.0390     2.5550     0.1740 ho         1 ZXB       0.510000
     30 HAN          2.5040    -0.3060     1.7370 h1         1 ZXB       0.054700
     31 HOAB         4.6700    -0.4830     0.7300 ho         1 ZXB       0.466000
     32 HAO          1.4240    -2.1690     0.6260 h1         1 ZXB       0.052700
     33 HOAC         2.8750    -1.7970    -1.2850 ho         1 ZXB       0.523000
@<TRIPOS>BOND
     1     1     2 ar  
     2     1     6 ar  
     3     1    17 1   
     4     2     3 ar  
     5     2    18 1   
     6     3     4 ar  
     7     3    19 1   
     8     4     5 ar  
     9     4    20 1   
    10     5     6 ar  
    11     5    21 1   
    12     6     7 1   
    13     7     8 1   
    14     7    22 1   
    15     7    23 1   
    16     8     9 1   
    17     8    15 1   
    18     8    24 1   
    19     9    10 1   
    20     9    25 1   
    21    10    11 1   
    22    10    26 1   
    23    10    27 1   
    24    11    12 1   
    25    11    13 1   
    26    11    28 1   
    27    12    29 1   
    28    13    14 1   
    29    13    15 1   
    30    13    30 1   
    31    14    31 1   
    32    15    16 1   
    33    15    32 1   
    34    16    33 1   
@<TRIPOS>SUBSTRUCTURE
     1 ZXB         1 TEMP              0 ****  ****    0 ROOT
