@<TRIPOS>MOLECULE
ZXC
   24    26     1     0     0
SMALL
abcg2


@<TRIPOS>ATOM
      1 C1           2.1400    -0.4560     0.0470 ca         1 ZXC      -0.087600
      2 C2           1.1910     0.5620    -0.0640 ca         1 ZXC       0.321900
      3 C3           3.4740    -0.0610    -0.0300 ca         1 ZXC       0.116500
      4 N4           2.0380    -1.8090     0.2200 nc         1 ZXC      -0.558100
      5 N5          -0.1410     0.2230    -0.0110 ns         1 ZXC      -0.317900
      6 N6           1.5980     1.8080    -0.2340 nb         1 ZXC      -0.218000
      7 N7           4.1800    -1.2140     0.1040 na         1 ZXC      -0.410300
      8 N8           3.9040     1.1830    -0.1940 nb         1 ZXC      -0.197000
      9 C9           3.2740    -2.2180     0.2480 cd         1 ZXC       0.413700
     10 C10         -1.2340     1.0570     0.0540 c          1 ZXC       0.655700
     11 C11          2.9100     2.0490    -0.2870 ca         1 ZXC       0.170900
     12 C12         -2.5380     0.3740    -0.0260 cc         1 ZXC      -0.309600
     13 O13         -1.1620     2.2580     0.1820 o          1 ZXC      -0.513100
     14 C14         -3.7320     0.9440     0.3230 cd         1 ZXC      -0.056000
     15 S15         -2.7690    -1.2360    -0.6030 ss         1 ZXC       0.232000
     16 C16         -4.8290     0.0730     0.1380 cd         1 ZXC      -0.145000
     17 C17         -4.4540    -1.1420    -0.3560 cc         1 ZXC      -0.224000
     18 HN5         -0.3010    -0.7720     0.0790 hn         1 ZXC       0.178000
     19 HN7          5.1840    -1.3150     0.0940 hn         1 ZXC       0.373000
     20 H9           3.5890    -3.2430     0.3700 h5         1 ZXC       0.068800
     21 H11          3.1880     3.0870    -0.4260 h5         1 ZXC       0.057100
     22 H14         -3.8160     1.9500     0.7080 ha         1 ZXC       0.154000
     23 H16         -5.8540     0.3350     0.3580 ha         1 ZXC       0.141000
     24 H17         -5.0830    -1.9840    -0.6020 h4         1 ZXC       0.154000
@<TRIPOS>BOND
     1     1     2 ar  
     2     1     3 ar  
     3     1     4 1   
     4     2     5 1   
     5     2     6 ar  
     6     3     7 1   
     7     3     8 ar  
     8     4     9 2   
     9     5    10 1   
    10     5    18 1   
    11     6    11 ar  
    12     7     9 1   
    13     7    19 1   
    14     8    11 ar  
    15     9    20 1   
    16    10    12 1   
    17    10    13 2   
    18    11    21 1   
    19    12    14 2   
    20    12    15 1   
    21    14    16 1   
    22    14    22 1   
    23    15    17 1   
    24    16    17 2   
    25    16    23 1   
    26    17    24 1   
@<TRIPOS>SUBSTRUCTURE
     1 ZXC         1 TEMP              0 ****  ****    0 ROOT
