@<TRIPOS>MOLECULE
ZXC
   24    26     1     0     0
SMALL
No Charge or Current Charge


@<TRIPOS>ATOM
      1 C1           2.1800    -0.4420    -0.0040 ca         1 ZXC      -0.087600
      2 C2           1.2240     0.5950    -0.0030 ca         1 ZXC       0.321900
      3 C3           3.5090    -0.1050    -0.0110 ca         1 ZXC       0.116500
      4 N4           1.9810    -1.8170     0.0020 nc         1 ZXC      -0.558100
      5 N5          -0.1580     0.3110     0.0040 ns         1 ZXC      -0.317900
      6 N6           1.6150     1.8890    -0.0090 nb         1 ZXC      -0.218000
      7 N7           4.2130    -1.2760    -0.0100 na         1 ZXC      -0.410300
      8 N8           3.9280     1.1740    -0.0170 nb         1 ZXC      -0.197000
      9 C9           3.2430    -2.2880    -0.0020 cd         1 ZXC       0.413700
     10 C10         -1.2630     1.1370     0.0060 c          1 ZXC       0.655700
     11 C11          2.9510     2.1120    -0.0160 ca         1 ZXC       0.170900
     12 C12         -2.5410     0.3960     0.0140 cc         1 ZXC      -0.309600
     13 O13         -1.2060     2.3590     0.0030 o          1 ZXC      -0.513100
     14 C14         -3.7800     0.9900     0.0180 cd         1 ZXC      -0.056000
     15 S15         -2.6700    -1.3620     0.0190 ss         1 ZXC       0.232000
     16 C16         -4.8460     0.0510     0.0250 cd         1 ZXC      -0.145000
     17 C17         -4.4280    -1.2570     0.0270 cc         1 ZXC      -0.224000
     18 HN5         -0.3650    -0.6770     0.0070 hn         1 ZXC       0.178000
     19 HN7          5.2160    -1.4000    -0.0140 hn         1 ZXC       0.373000
     20 H9           3.5260    -3.3340    -0.0000 h5         1 ZXC       0.068800
     21 H11          3.2730     3.1520    -0.0210 h5         1 ZXC       0.057100
     22 H14         -3.9350     2.0670     0.0150 ha         1 ZXC       0.154000
     23 H16         -5.8930     0.3410     0.0290 ha         1 ZXC       0.141000
     24 H17         -5.0170    -2.1650     0.0320 h4         1 ZXC       0.154000
@<TRIPOS>BOND
     1     1     2 ar  
     2     1     3 ar  
     3     1     4 1   
     4     2     5 1   
     5     2     6 ar  
     6     3     7 1   
     7     3     8 ar  
     8     4     9 2   
     9     5    10 1   
    10     5    18 1   
    11     6    11 ar  
    12     7     9 1   
    13     7    19 1   
    14     8    11 ar  
    15     9    20 1   
    16    10    12 1   
    17    10    13 2   
    18    11    21 1   
    19    12    14 2   
    20    12    15 1   
    21    14    16 1   
    22    14    22 1   
    23    15    17 1   
    24    16    17 2   
    25    16    23 1   
    26    17    24 1   
@<TRIPOS>SUBSTRUCTURE
     1 ZXC         1 TEMP              0 ****  ****    0 ROOT
