@<TRIPOS>MOLECULE
ZXG
   36    37     1     0     0
SMALL
No Charge or Current Charge


@<TRIPOS>ATOM
      1 CAA         18.0960    17.4440     9.5300 c3         1 ZXG      -0.082600
      2 CAB         16.5030    15.6840    10.3410 c3         1 ZXG      -0.082600
      3 OAC         18.4320    15.5110    16.1150 o          1 ZXG      -0.683200
      4 OAD         19.8400    16.9720    17.5250 o          1 ZXG      -0.683200
      5 OAF         17.4520    16.6890    18.0530 o          1 ZXG      -0.683200
      6 BrAG        15.2690    22.3220    10.5750 br         1 ZXG      -0.105600
      7 BrAH        11.9620    18.1080     8.3710 br         1 ZXG      -0.105600
      8 BrAI        20.7080    18.1830    14.3100 br         1 ZXG      -0.089100
      9 BrAJ        15.0730    17.5210    15.5670 br         1 ZXG      -0.089100
     10 CAK         15.9610    19.5360    10.4380 ca         1 ZXG      -0.029000
     11 CAL         14.5770    17.7650     9.5170 ca         1 ZXG      -0.029000
     12 CAM         18.6110    17.6290    12.4300 ca         1 ZXG      -0.055500
     13 CAN         16.2570    17.3490    12.9590 ca         1 ZXG      -0.055500
     14 OAO         18.1320    17.9750    16.0780 os         1 ZXG      -0.466800
     15 CAP         14.9650    20.4790    10.1340 ca         1 ZXG      -0.078400
     16 CAQ         13.5800    18.7080     9.2120 ca         1 ZXG      -0.078400
     17 CAR         18.8940    17.8220    13.7930 ca         1 ZXG      -0.056400
     18 CAS         16.5340    17.5430    14.3220 ca         1 ZXG      -0.056400
     19 CAT         13.7680    20.0680     9.5200 ca         1 ZXG       0.178100
     20 CAU         15.7840    18.1650    10.1400 ca         1 ZXG      -0.093300
     21 CAV         17.2870    17.3860    11.9910 ca         1 ZXG      -0.137300
     22 CAW         17.8600    17.7620    14.7510 ca         1 ZXG       0.292100
     23 CAX         16.9150    17.1730    10.5040 c3         1 ZXG       0.060600
     24 SAY         18.4930    16.6740    17.0150 s6         1 ZXG       1.504300
     25 HAA         18.4940    18.4580     9.6550 hc         1 ZXG       0.038700
     26 HAAA        18.9140    16.7300     9.6870 hc         1 ZXG       0.038700
     27 HAAB        17.7650    17.3430     8.4890 hc         1 ZXG       0.038700
     28 HAB         15.6090    15.4490    10.9310 hc         1 ZXG       0.038700
     29 HABA        16.3000    15.4370     9.2920 hc         1 ZXG       0.038700
     30 HABB        17.3090    15.0240    10.6840 hc         1 ZXG       0.038700
     31 HOAE        12.0510    20.4980     8.8030 ho         1 ZXG       0.476000
     32 HAK         16.8780    19.8740    10.9140 ha         1 ZXG       0.140000
     33 HAL         14.3910    16.7270     9.2590 ha         1 ZXG       0.140000
     34 HAM         19.4390    17.6750    11.7290 ha         1 ZXG       0.116000
     35 HAN         15.2280    17.1780    12.6520 ha         1 ZXG       0.116000
     36 OAE         12.7950    20.9810     9.2220 oh         1 ZXG      -0.512100
@<TRIPOS>BOND
     1     1    23 1   
     2     1    25 1   
     3     1    26 1   
     4     1    27 1   
     5     2    23 1   
     6     2    28 1   
     7     2    29 1   
     8     2    30 1   
     9     3    24 1   
    10     4    24 1   
    11     5    24 1   
    12     6    15 1   
    13     7    16 1   
    14     8    17 1   
    15     9    18 1   
    16    10    15 ar  
    17    10    20 ar  
    18    10    32 1   
    19    11    16 ar  
    20    11    20 ar  
    21    11    33 1   
    22    12    17 ar  
    23    12    21 ar  
    24    12    34 1   
    25    13    18 ar  
    26    13    21 ar  
    27    13    35 1   
    28    14    22 1   
    29    14    24 1   
    30    15    19 ar  
    31    16    19 ar  
    32    17    22 ar  
    33    18    22 ar  
    34    19    36 1   
    35    20    23 1   
    36    21    23 1   
    37    31    36 1   
@<TRIPOS>SUBSTRUCTURE
     1 ZXG         1 TEMP              0 ****  ****    0 ROOT
