@<TRIPOS>MOLECULE
ZXG
   36    37     1     0     0
SMALL
abcg2


@<TRIPOS>ATOM
      1 CAA         18.0840    17.4390     9.5780 c3         1 ZXG      -0.082600
      2 CAB         16.4600    15.7110    10.3350 c3         1 ZXG      -0.082600
      3 OAC         18.6610    15.5110    16.1760 o          1 ZXG      -0.683200
      4 OAD         19.8560    17.1220    17.5900 o          1 ZXG      -0.683200
      5 OAF         17.5300    16.5930    18.0620 o          1 ZXG      -0.683200
      6 BRAG        15.2720    22.2920    10.4950 br         1 ZXG      -0.105600
      7 BRAH        12.0080    18.1330     8.3600 br         1 ZXG      -0.105600
      8 BRAI        20.6190    18.2150    14.2800 br         1 ZXG      -0.089100
      9 BRAJ        15.0940    17.4060    15.5500 br         1 ZXG      -0.089100
     10 CAK         15.9560    19.5220    10.4190 ca         1 ZXG      -0.029000
     11 CAL         14.5940    17.7690     9.5330 ca         1 ZXG      -0.029000
     12 CAM         18.5480    17.6470    12.4190 ca         1 ZXG      -0.055500
     13 CAN         16.2420    17.3140    12.9520 ca         1 ZXG      -0.055500
     14 OAO         18.0980    17.9410    16.0660 os         1 ZXG      -0.466800
     15 CAP         14.9840    20.4470    10.0890 ca         1 ZXG      -0.078400
     16 CAQ         13.6280    18.7100     9.2050 ca         1 ZXG      -0.078400
     17 CAR         18.8230    17.8160    13.7710 ca         1 ZXG      -0.056400
     18 CAS         16.5300    17.4800    14.2940 ca         1 ZXG      -0.056400
     19 CAT         13.7850    20.0700     9.4730 ca         1 ZXG       0.178100
     20 CAU         15.7770    18.1630    10.1480 ca         1 ZXG      -0.093300
     21 CAV         17.2520    17.3870    11.9910 ca         1 ZXG      -0.137300
     22 CAW         17.8320    17.7240    14.7480 ca         1 ZXG       0.292100
     23 CAX         16.8920    17.1780    10.5160 c3         1 ZXG       0.060600
     24 SAY         18.5860    16.6530    17.0700 s6         1 ZXG       1.504300
     25 HAA         18.4720    18.4520     9.6870 hc         1 ZXG       0.038700
     26 HAAA        18.8940    16.7330     9.7690 hc         1 ZXG       0.038700
     27 HAAB        17.7590    17.3100     8.5450 hc         1 ZXG       0.038700
     28 HAB         15.5750    15.4720    10.9250 hc         1 ZXG       0.038700
     29 HABA        16.2470    15.4960     9.2870 hc         1 ZXG       0.038700
     30 HABB        17.2710    15.0570    10.6560 hc         1 ZXG       0.038700
     31 HOAE        12.0910    20.5990     8.7650 ho         1 ZXG       0.476000
     32 HAK         16.8590    19.8620    10.9050 ha         1 ZXG       0.140000
     33 HAL         14.4050    16.7320     9.3050 ha         1 ZXG       0.140000
     34 HAM         19.3590    17.7310    11.7130 ha         1 ZXG       0.116000
     35 HAN         15.2180    17.1420    12.6500 ha         1 ZXG       0.116000
     36 OAE         12.8650    21.0120     9.1820 oh         1 ZXG      -0.512100
@<TRIPOS>BOND
     1     1    23 1   
     2     1    25 1   
     3     1    26 1   
     4     1    27 1   
     5     2    23 1   
     6     2    28 1   
     7     2    29 1   
     8     2    30 1   
     9     3    24 1   
    10     4    24 1   
    11     5    24 1   
    12     6    15 1   
    13     7    16 1   
    14     8    17 1   
    15     9    18 1   
    16    10    15 ar  
    17    10    20 ar  
    18    10    32 1   
    19    11    16 ar  
    20    11    20 ar  
    21    11    33 1   
    22    12    17 ar  
    23    12    21 ar  
    24    12    34 1   
    25    13    18 ar  
    26    13    21 ar  
    27    13    35 1   
    28    14    22 1   
    29    14    24 1   
    30    15    19 ar  
    31    16    19 ar  
    32    17    22 ar  
    33    18    22 ar  
    34    19    36 1   
    35    20    23 1   
    36    21    23 1   
    37    31    36 1   
@<TRIPOS>SUBSTRUCTURE
     1 ZXG         1 TEMP              0 ****  ****    0 ROOT
