@<TRIPOS>MOLECULE
ZXH
   58    62     1     0     0
SMALL
abcg2


@<TRIPOS>ATOM
      1 N1           4.0140    -1.6430    20.1680 nb         1 ZXH      -0.721000
      2 C4           3.0220    -2.5400    19.9690 ca         1 ZXH       0.471900
      3 C5           3.1380    -3.6010    19.1020 ca         1 ZXH      -0.172000
      4 C6           4.3500    -3.7650    18.4040 ca         1 ZXH       0.016000
      5 C7           5.3880    -2.8370    18.6160 ca         1 ZXH      -0.126000
      6 C8           5.1370    -1.7850    19.5230 ca         1 ZXH       0.401900
      7 C10          6.7840    -4.0400    17.0860 ca         1 ZXH       0.109000
      8 C13          5.9750    -6.1280    15.8670 c6         1 ZXH      -0.022400
      9 C15          6.0540    -6.7910    13.4420 c6         1 ZXH       0.173800
     10 C17          5.0870    -7.3480    16.0970 c6         1 ZXH      -0.073900
     11 C20          3.5920   -10.2610    11.4230 c5         1 ZXH       0.139600
     12 C21          3.7970    -9.7340    12.8340 c5         1 ZXH       0.144300
     13 CL           8.3210    -4.1980    16.2910 cl         1 ZXH      -0.207000
     14 C9           6.6140    -2.9890    17.9410 ca         1 ZXH      -0.065000
     15 N            1.9020    -2.2510    20.7410 ns         1 ZXH      -0.314900
     16 C3           0.7380    -2.9490    20.8610 c          1 ZXH       0.645100
     17 O            0.4990    -3.9710    20.2410 o          1 ZXH      -0.585100
     18 C2          -0.2210    -2.3540    21.8280 cx         1 ZXH      -0.249700
     19 C1          -1.0470    -3.2970    22.6670 cx         1 ZXH      -0.094400
     20 C           -1.6930    -2.5370    21.5700 cx         1 ZXH      -0.094400
     21 C11          5.7600    -4.9980    16.8400 ca         1 ZXH      -0.038300
     22 C12          4.5710    -4.8320    17.5040 ca         1 ZXH      -0.101000
     23 C16          5.4050    -8.4210    15.0690 c6         1 ZXH       0.173800
     24 N2           5.1750    -7.9170    13.7200 n3         1 ZXH      -0.749600
     25 C14          5.7950    -5.6550    14.4200 c6         1 ZXH      -0.073900
     26 C18          5.1280    -8.9530    12.6950 c5         1 ZXH       0.122200
     27 O2           2.7640    -8.8530    13.1930 oh         1 ZXH      -0.725000
     28 O1           4.2620    -9.3660    10.5460 os         1 ZXH      -0.454000
     29 C19          4.9110    -8.3610    11.2930 c5         1 ZXH       0.160600
     30 H1           2.3350    -4.3040    18.9500 ha         1 ZXH       0.160000
     31 H2           5.9090    -1.0440    19.7100 h4         1 ZXH       0.023100
     32 H3           7.0110    -6.4690    15.9760 hc         1 ZXH       0.064700
     33 H4           7.1150    -7.0820    13.4990 h1         1 ZXH       0.038700
     34 H5           5.8790    -6.4240    12.4310 h1         1 ZXH       0.038700
     35 H6           4.0290    -7.0880    16.0070 hc         1 ZXH       0.055450
     36 H7           5.2410    -7.7490    17.1010 hc         1 ZXH       0.055450
     37 H9           4.0140   -11.2660    11.3160 h1         1 ZXH       0.055700
     38 H10          3.8760   -10.5630    13.5510 h1         1 ZXH       0.053700
     39 H14          7.4120    -2.2770    18.1120 ha         1 ZXH       0.132000
     40 H15          2.0080    -1.4230    21.3090 hn         1 ZXH       0.169000
     41 H16          0.0800    -1.4250    22.2970 hc         1 ZXH       0.088700
     42 H17         -1.2340    -2.9950    23.6890 hc         1 ZXH       0.083700
     43 H18         -0.8840    -4.3570    22.5290 hc         1 ZXH       0.083700
     44 H19         -2.3350    -1.7040    21.8220 hc         1 ZXH       0.083700
     45 H20         -1.9780    -3.0740    20.6740 hc         1 ZXH       0.083700
     46 H21          3.7650    -5.5380    17.3480 ha         1 ZXH       0.128000
     47 H22          4.7700    -9.2910    15.2480 h1         1 ZXH       0.038700
     48 H23          6.4440    -8.7560    15.2070 h1         1 ZXH       0.038700
     49 H25          6.4710    -4.8300    14.1910 hc         1 ZXH       0.055450
     50 H26          4.7740    -5.2860    14.2850 hc         1 ZXH       0.055450
     51 H27          3.2200    -8.0810    13.5740 ho         1 ZXH       0.537000
     52 H28          5.8480    -8.1020    10.7950 h1         1 ZXH       0.053200
     53 H29          4.2960    -7.4530    11.3480 h1         1 ZXH       0.053200
     54 H8           2.5280   -10.3200    11.1740 h1         1 ZXH       0.055700
     55 C22          6.3290    -9.9000    12.6940 c3         1 ZXH      -0.111100
     56 H11          6.3640   -10.5110    13.5960 hc         1 ZXH       0.045367
     57 H12          6.3010   -10.5780    11.8410 hc         1 ZXH       0.045367
     58 H13          7.2620    -9.3370    12.6300 hc         1 ZXH       0.045367
@<TRIPOS>BOND
     1     1     2 ar  
     2     1     6 ar  
     3     2     3 ar  
     4     2    15 1   
     5     3     4 ar  
     6     3    30 1   
     7     4     5 ar  
     8     4    22 ar  
     9     5     6 ar  
    10     5    14 ar  
    11     6    31 1   
    12     7    13 1   
    13     7    14 ar  
    14     7    21 ar  
    15     8    10 1   
    16     8    21 1   
    17     8    25 1   
    18     8    32 1   
    19     9    24 1   
    20     9    25 1   
    21     9    33 1   
    22     9    34 1   
    23    10    23 1   
    24    10    35 1   
    25    10    36 1   
    26    11    12 1   
    27    11    28 1   
    28    11    37 1   
    29    11    54 1   
    30    12    26 1   
    31    12    27 1   
    32    12    38 1   
    33    14    39 1   
    34    15    16 1   
    35    15    40 1   
    36    16    17 2   
    37    16    18 1   
    38    18    19 1   
    39    18    20 1   
    40    18    41 1   
    41    19    20 1   
    42    19    42 1   
    43    19    43 1   
    44    20    44 1   
    45    20    45 1   
    46    21    22 ar  
    47    22    46 1   
    48    23    24 1   
    49    23    47 1   
    50    23    48 1   
    51    24    26 1   
    52    25    49 1   
    53    25    50 1   
    54    26    29 1   
    55    26    55 1   
    56    27    51 1   
    57    28    29 1   
    58    29    52 1   
    59    29    53 1   
    60    55    56 1   
    61    55    57 1   
    62    55    58 1   
@<TRIPOS>SUBSTRUCTURE
     1 ZXH         1 TEMP              0 ****  ****    0 ROOT
