@<TRIPOS>MOLECULE
ZXH
   58    62     1     0     0
SMALL
No Charge or Current Charge


@<TRIPOS>ATOM
      1 N1           3.9770    -2.1090    20.6300 nb         1 ZXH      -0.721000
      2 C4           2.9450    -2.6990    19.9970 ca         1 ZXH       0.471900
      3 C5           3.1050    -3.6010    18.9270 ca         1 ZXH      -0.172000
      4 C6           4.4040    -3.9010    18.4870 ca         1 ZXH       0.016000
      5 C7           5.4860    -3.2880    19.1370 ca         1 ZXH      -0.126000
      6 C8           5.2270    -2.4020    20.2010 ca         1 ZXH       0.401900
      7 C10          7.0330    -4.4580    17.6560 ca         1 ZXH       0.109000
      8 C13          6.1460    -6.0700    15.8200 c6         1 ZXH      -0.022400
      9 C15          5.6830    -6.5780    13.3590 c6         1 ZXH       0.173800
     10 C17          5.6010    -7.4840    16.1430 c6         1 ZXH      -0.073900
     11 C20          3.4590   -10.5070    11.6150 c5         1 ZXH       0.139600
     12 C21          4.0580   -10.0450    12.9890 c5         1 ZXH       0.144300
     13 Cl           8.7140    -4.7500    17.2010 cl         1 ZXH      -0.207000
     14 C9           6.7990    -3.5680    18.7200 ca         1 ZXH      -0.065000
     15 N            1.7270    -2.2980    20.5560 ns         1 ZXH      -0.314900
     16 C3           0.4320    -2.5130    20.1520 c          1 ZXH       0.645100
     17 O            0.1160    -3.1220    19.1400 o          1 ZXH      -0.585100
     18 C2          -0.5960    -1.9030    21.0740 cx         1 ZXH      -0.249700
     19 C1          -0.6820    -2.3980    22.5060 cx         1 ZXH      -0.094400
     20 C           -1.7740    -2.7470    21.5220 cx         1 ZXH      -0.094400
     21 C11          5.9440    -5.0850    16.9920 ca         1 ZXH      -0.038300
     22 C12          4.6300    -4.7920    17.4240 ca         1 ZXH      -0.101000
     23 C16          5.7980    -8.4390    14.9440 c6         1 ZXH       0.173800
     24 N2           5.1210    -7.9230    13.7070 n3         1 ZXH      -0.749600
     25 C14          5.4920    -5.5640    14.5100 c6         1 ZXH      -0.073900
     26 C18          5.0630    -8.9180    12.5510 c5         1 ZXH       0.122200
     27 O2           3.0950    -9.4530    13.8620 oh         1 ZXH      -0.725000
     28 O1           3.6920    -9.4290    10.6720 os         1 ZXH      -0.454000
     29 C19          4.1960    -8.2920    11.4050 c5         1 ZXH       0.160600
     30 H1           2.2510    -4.0670    18.4500 ha         1 ZXH       0.160000
     31 H2           6.0440    -1.9100    20.7290 h4         1 ZXH       0.023100
     32 H3           7.2150    -6.1880    15.6090 hc         1 ZXH       0.064700
     33 H4           6.7560    -6.6610    13.1280 h1         1 ZXH       0.038700
     34 H5           5.1960    -6.1620    12.4670 h1         1 ZXH       0.038700
     35 H6           4.5340    -7.4410    16.3950 hc         1 ZXH       0.055450
     36 H7           6.1160    -7.8890    17.0240 hc         1 ZXH       0.055450
     37 H9           3.9580   -11.4120    11.2440 h1         1 ZXH       0.055700
     38 H10          4.5740   -10.8710    13.4990 h1         1 ZXH       0.053700
     39 H14          7.6440    -3.0970    19.2180 ha         1 ZXH       0.132000
     40 H15          1.8270    -1.7530    21.3990 hn         1 ZXH       0.169000
     41 H16         -0.7870    -0.8460    20.9060 hc         1 ZXH       0.088700
     42 H17         -0.9140    -1.6720    23.2820 hc         1 ZXH       0.083700
     43 H18         -0.0130    -3.1970    22.8200 hc         1 ZXH       0.083700
     44 H19         -2.7370    -2.2550    21.6390 hc         1 ZXH       0.083700
     45 H20         -1.8320    -3.7770    21.1770 hc         1 ZXH       0.083700
     46 H21          3.7790    -5.2580    16.9340 ha         1 ZXH       0.128000
     47 H22          5.4120    -9.4280    15.2270 h1         1 ZXH       0.038700
     48 H23          6.8770    -8.5620    14.7650 h1         1 ZXH       0.038700
     49 H25          5.9290    -4.5980    14.2250 hc         1 ZXH       0.055450
     50 H26          4.4180    -5.3900    14.6560 hc         1 ZXH       0.055450
     51 H27          3.6060    -8.6220    14.0900 ho         1 ZXH       0.537000
     52 H28          4.7740    -7.6430    10.7340 h1         1 ZXH       0.053200
     53 H29          3.3440    -7.7190    11.7960 h1         1 ZXH       0.053200
     54 H8           2.3820   -10.7110    11.6850 h1         1 ZXH       0.055700
     55 C22          6.4420    -9.4350    12.0610 c3         1 ZXH      -0.111100
     56 H11          6.9710    -9.9780    12.8510 hc         1 ZXH       0.045367
     57 H12          6.3350   -10.1200    11.2110 hc         1 ZXH       0.045367
     58 H13          7.0830    -8.6080    11.7350 hc         1 ZXH       0.045367
@<TRIPOS>BOND
     1     1     2 ar  
     2     1     6 ar  
     3     2     3 ar  
     4     2    15 1   
     5     3     4 ar  
     6     3    30 1   
     7     4     5 ar  
     8     4    22 ar  
     9     5     6 ar  
    10     5    14 ar  
    11     6    31 1   
    12     7    13 1   
    13     7    14 ar  
    14     7    21 ar  
    15     8    10 1   
    16     8    21 1   
    17     8    25 1   
    18     8    32 1   
    19     9    24 1   
    20     9    25 1   
    21     9    33 1   
    22     9    34 1   
    23    10    23 1   
    24    10    35 1   
    25    10    36 1   
    26    11    12 1   
    27    11    28 1   
    28    11    37 1   
    29    11    54 1   
    30    12    26 1   
    31    12    27 1   
    32    12    38 1   
    33    14    39 1   
    34    15    16 1   
    35    15    40 1   
    36    16    17 2   
    37    16    18 1   
    38    18    19 1   
    39    18    20 1   
    40    18    41 1   
    41    19    20 1   
    42    19    42 1   
    43    19    43 1   
    44    20    44 1   
    45    20    45 1   
    46    21    22 ar  
    47    22    46 1   
    48    23    24 1   
    49    23    47 1   
    50    23    48 1   
    51    24    26 1   
    52    25    49 1   
    53    25    50 1   
    54    26    29 1   
    55    26    55 1   
    56    27    51 1   
    57    28    29 1   
    58    29    52 1   
    59    29    53 1   
    60    55    56 1   
    61    55    57 1   
    62    55    58 1   
@<TRIPOS>SUBSTRUCTURE
     1 ZXH         1 TEMP              0 ****  ****    0 ROOT
