@<TRIPOS>MOLECULE
ZXI
   17    17     1     0     0
SMALL
No Charge or Current Charge


@<TRIPOS>ATOM
      1 C1           4.3690    -0.0350    -0.3910 c3         1 ZXI       0.195100
      2 C2           2.8480    -0.0200    -0.2950 ca         1 ZXI      -0.070300
      3 C3           2.1280    -1.2310    -0.2410 ca         1 ZXI      -0.104500
      4 C4           0.7230    -1.2190    -0.1560 ca         1 ZXI      -0.082000
      5 C5           0.0340     0.0040    -0.1260 ca         1 ZXI       0.196000
      6 C6           0.7430     1.2140    -0.1810 ca         1 ZXI      -0.082000
      7 C7           2.1480     1.2030    -0.2650 ca         1 ZXI      -0.104500
      8 I14         -2.1280     0.0230     0.0040 i          1 ZXI      -0.320000
      9 N15          4.9940    -0.1530     0.9400 n8         1 ZXI      -1.000200
     10 H1           4.6930    -0.8820    -1.0130 h1         1 ZXI       0.038200
     11 H2           4.7200     0.8900    -0.8690 h1         1 ZXI       0.038200
     12 H3           2.6580    -2.1810    -0.2610 ha         1 ZXI       0.124000
     13 H4           0.1700    -2.1530    -0.1130 ha         1 ZXI       0.125500
     14 H5           0.2050     2.1580    -0.1570 ha         1 ZXI       0.125500
     15 H6           2.6910     2.1450    -0.3070 ha         1 ZXI       0.124000
     16 H7           6.0130    -0.0700     0.8370 hn         1 ZXI       0.398500
     17 H8           4.7380     0.6710     1.4960 hn         1 ZXI       0.398500
@<TRIPOS>BOND
     1     1     2 1   
     2     1     9 1   
     3     1    10 1   
     4     1    11 1   
     5     2     3 ar  
     6     2     7 ar  
     7     3     4 ar  
     8     3    12 1   
     9     4     5 ar  
    10     4    13 1   
    11     5     6 ar  
    12     5     8 1   
    13     6     7 ar  
    14     6    14 1   
    15     7    15 1   
    16     9    16 1   
    17     9    17 1   
@<TRIPOS>SUBSTRUCTURE
     1 ZXI         1 TEMP              0 ****  ****    0 ROOT
