@<TRIPOS>MOLECULE
ZXI
   17    17     1     0     0
SMALL
bcc


@<TRIPOS>ATOM
      1 C1           4.3360     0.2920    -0.2300 c3         1 ZXI       0.195100
      2 C2           2.8330     0.1650    -0.1940 ca         1 ZXI      -0.070300
      3 C3           2.2020    -1.0230     0.1590 ca         1 ZXI      -0.122500
      4 C4           0.8160    -1.1270     0.1600 ca         1 ZXI      -0.100000
      5 C5           0.0520    -0.0280    -0.1990 ca         1 ZXI       0.058900
      6 C6           0.6560     1.1710    -0.5540 ca         1 ZXI      -0.100000
      7 C7           2.0400     1.2560    -0.5430 ca         1 ZXI      -0.122500
      8 I14         -2.0480    -0.1720    -0.1980 i          1 ZXI      -0.182900
      9 N15          5.0030    -0.7330     0.5490 n8         1 ZXI      -0.889800
     10 H1           4.6600     0.1870    -1.2700 h1         1 ZXI       0.038200
     11 H2           4.6020     1.3170     0.0600 h1         1 ZXI       0.038200
     12 H3           2.7950    -1.8820     0.4410 ha         1 ZXI       0.142000
     13 H4           0.3520    -2.0620     0.4430 ha         1 ZXI       0.143500
     14 H5           0.0690     2.0360    -0.8310 ha         1 ZXI       0.143500
     15 H6           2.5070     2.1960    -0.8130 ha         1 ZXI       0.142000
     16 H7           5.9990    -0.6790     0.3840 hn         1 ZXI       0.343300
     17 H8           4.8720    -0.5510     1.5360 hn         1 ZXI       0.343300
@<TRIPOS>BOND
     1     1     2 1   
     2     1     9 1   
     3     1    10 1   
     4     1    11 1   
     5     2     3 ar  
     6     2     7 ar  
     7     3     4 ar  
     8     3    12 1   
     9     4     5 ar  
    10     4    13 1   
    11     5     6 ar  
    12     5     8 1   
    13     6     7 ar  
    14     6    14 1   
    15     7    15 1   
    16     9    16 1   
    17     9    17 1   
@<TRIPOS>SUBSTRUCTURE
     1 ZXI         1 TEMP              0 ****  ****    0 ROOT
