@<TRIPOS>MOLECULE
ZXJ
   31    33     1     0     0
SMALL
abcg2


@<TRIPOS>ATOM
      1 C10         -5.2580    48.5140   -15.9750 c          1 ZXJ       0.732600
      2 C13         -2.7160    51.1870   -12.1030 ca         1 ZXJ       0.051000
      3 C15         -2.3610    52.5990   -10.1940 ca         1 ZXJ      -0.110000
      4 C17         -0.5150    51.3650   -11.1140 ca         1 ZXJ      -0.112000
      5 C02         -4.7280    52.3830   -11.1190 c6         1 ZXJ       0.005300
      6 C03         -5.0440    53.7290   -10.4700 c3         1 ZXJ      -0.079100
      7 C04         -5.2890    52.4060   -12.5500 c6         1 ZXJ       0.000900
      8 C05         -4.8630    51.2080   -13.3340 cc         1 ZXJ      -0.090300
      9 C06         -3.6300    50.6610   -13.1010 cd         1 ZXJ      -0.261000
     10 C08         -4.8690    49.4850   -14.8910 cd         1 ZXJ      -0.201600
     11 C09         -5.5670    50.5330   -14.3610 cc         1 ZXJ      -0.157000
     12 C14         -3.2320    52.0840   -11.1460 ca         1 ZXJ      -0.073300
     13 C16         -1.0150    52.2510   -10.1720 ca         1 ZXJ      -0.143000
     14 C18         -1.3640    50.8420   -12.0760 ca         1 ZXJ      -0.121000
     15 O11         -4.4050    47.6440   -16.2410 o          1 ZXJ      -0.707000
     16 O12         -6.3780    48.6820   -16.4880 o          1 ZXJ      -0.707000
     17 S07         -3.3330    49.3140   -14.1320 ss         1 ZXJ       0.235000
     18 H1          -2.7280    53.2850    -9.4420 ha         1 ZXJ       0.097000
     19 H2           0.5300    51.0870   -11.1070 ha         1 ZXJ       0.099000
     20 H3          -5.0450    51.2630    -9.2820 hc         1 ZXJ       0.031033
     21 H4          -6.4920    51.4310   -10.2800 hc         1 ZXJ       0.031033
     22 H5          -5.2330    50.2830   -10.7360 hc         1 ZXJ       0.031033
     23 H6          -4.7890    53.7510    -9.4100 hc         1 ZXJ       0.031033
     24 H7          -4.5170    54.5470   -10.9640 hc         1 ZXJ       0.031033
     25 H8          -6.1150    53.9280   -10.5430 hc         1 ZXJ       0.031033
     26 H9          -4.9440    53.3150   -13.0590 hc         1 ZXJ       0.041700
     27 H10         -6.3790    52.4730   -12.5070 hc         1 ZXJ       0.041700
     28 H11         -6.5590    50.8080   -14.6940 ha         1 ZXJ       0.137000
     29 H12         -0.3630    52.6720    -9.4180 ha         1 ZXJ       0.095000
     30 H13         -0.9670    50.1620   -12.8210 ha         1 ZXJ       0.118000
     31 C01         -5.4120    51.2710   -10.3100 c3         1 ZXJ      -0.079100
@<TRIPOS>BOND
     1     1    10 1   
     2     1    15 1   
     3     1    16 1   
     4     2     9 1   
     5     2    12 ar  
     6     2    14 ar  
     7     3    12 ar  
     8     3    13 ar  
     9     3    18 1   
    10     4    13 ar  
    11     4    14 ar  
    12     4    19 1   
    13     5     6 1   
    14     5     7 1   
    15     5    12 1   
    16     5    31 1   
    17     6    23 1   
    18     6    24 1   
    19     6    25 1   
    20     7     8 1   
    21     7    26 1   
    22     7    27 1   
    23     8     9 2   
    24     8    11 1   
    25     9    17 1   
    26    10    11 2   
    27    10    17 1   
    28    11    28 1   
    29    13    29 1   
    30    14    30 1   
    31    20    31 1   
    32    21    31 1   
    33    22    31 1   
@<TRIPOS>SUBSTRUCTURE
     1 ZXJ         1 TEMP              0 ****  ****    0 ROOT
