@<TRIPOS>MOLECULE
ZXJ
   31    33     1     0     0
SMALL
No Charge or Current Charge


@<TRIPOS>ATOM
      1 C10         -5.3010    48.5680   -16.0410 c          1 ZXJ       0.732600
      2 C13         -2.6660    51.2070   -12.1250 ca         1 ZXJ       0.051000
      3 C15         -2.3510    52.5680   -10.1290 ca         1 ZXJ      -0.110000
      4 C17         -0.4670    51.3550   -11.0770 ca         1 ZXJ      -0.112000
      5 C02         -4.7400    52.3870   -11.1340 c6         1 ZXJ       0.005300
      6 C03         -5.0580    53.7980   -10.5420 c3         1 ZXJ      -0.079100
      7 C04         -5.3750    52.3080   -12.5660 c6         1 ZXJ       0.000900
      8 C05         -4.8230    51.1470   -13.3470 cc         1 ZXJ      -0.090300
      9 C06         -3.5520    50.6920   -13.1720 cd         1 ZXJ      -0.261000
     10 C08         -4.8110    49.4520   -14.9530 cd         1 ZXJ      -0.201600
     11 C09         -5.5390    50.4600   -14.3570 cc         1 ZXJ      -0.157000
     12 C14         -3.2080    52.0800   -11.1450 ca         1 ZXJ      -0.073300
     13 C16         -0.9920    52.2150   -10.1030 ca         1 ZXJ      -0.143000
     14 C18         -1.3040    50.8470   -12.0830 ca         1 ZXJ      -0.121000
     15 O11         -4.5460    47.7140   -16.4830 o          1 ZXJ      -0.707000
     16 O12         -6.4410    48.7240   -16.4580 o          1 ZXJ      -0.707000
     17 S07         -3.1800    49.3380   -14.2600 ss         1 ZXJ       0.235000
     18 H1          -2.7280    53.2100    -9.3390 ha         1 ZXJ       0.097000
     19 H2           0.5840    51.0790   -11.0520 ha         1 ZXJ       0.099000
     20 H3          -5.0190    51.3770    -9.1890 hc         1 ZXJ       0.031033
     21 H4          -6.5070    51.5050   -10.1370 hc         1 ZXJ       0.031033
     22 H5          -5.2730    50.3180   -10.5800 hc         1 ZXJ       0.031033
     23 H6          -4.8340    53.8630    -9.4710 hc         1 ZXJ       0.031033
     24 H7          -4.4850    54.5810   -11.0530 hc         1 ZXJ       0.031033
     25 H8          -6.1210    54.0440   -10.6530 hc         1 ZXJ       0.031033
     26 H9          -5.1530    53.2340   -13.1130 hc         1 ZXJ       0.041700
     27 H10         -6.4710    52.2560   -12.4980 hc         1 ZXJ       0.041700
     28 H11         -6.5610    50.7170   -14.6240 ha         1 ZXJ       0.137000
     29 H12         -0.3470    52.6000    -9.3170 ha         1 ZXJ       0.095000
     30 H13         -0.8840    50.1820   -12.8320 ha         1 ZXJ       0.118000
     31 C01         -5.4260    51.3380   -10.2070 c3         1 ZXJ      -0.079100
@<TRIPOS>BOND
     1     1    10 1   
     2     1    15 1   
     3     1    16 1   
     4     2     9 1   
     5     2    12 ar  
     6     2    14 ar  
     7     3    12 ar  
     8     3    13 ar  
     9     3    18 1   
    10     4    13 ar  
    11     4    14 ar  
    12     4    19 1   
    13     5     6 1   
    14     5     7 1   
    15     5    12 1   
    16     5    31 1   
    17     6    23 1   
    18     6    24 1   
    19     6    25 1   
    20     7     8 1   
    21     7    26 1   
    22     7    27 1   
    23     8     9 2   
    24     8    11 1   
    25     9    17 1   
    26    10    11 2   
    27    10    17 1   
    28    11    28 1   
    29    13    29 1   
    30    14    30 1   
    31    20    31 1   
    32    21    31 1   
    33    22    31 1   
@<TRIPOS>SUBSTRUCTURE
     1 ZXJ         1 TEMP              0 ****  ****    0 ROOT
