@<TRIPOS>MOLECULE
ZXL
   68    73     1     0     0
SMALL
No Charge or Current Charge


@<TRIPOS>ATOM
      1 N1           4.8490    -8.3740    12.9800 n3         1 ZXL      -0.746600
      2 N3          -1.2510    -1.7240    25.1260 na         1 ZXL       0.136800
      3 C4           4.8350    -3.4140    19.9150 ca         1 ZXL       0.401900
      4 C5           6.4290    -4.3380    18.2940 ca         1 ZXL      -0.065000
      5 C6           6.6850    -5.1190    17.1520 ca         1 ZXL       0.110000
      6 C7           5.6180    -5.7660    16.4710 ca         1 ZXL      -0.039300
      7 C8           4.3040    -5.6050    16.9660 ca         1 ZXL      -0.100000
      8 C10          5.1130    -6.0700    13.9720 c6         1 ZXL      -0.073400
      9 C13          5.4100    -8.1040    15.4320 c6         1 ZXL      -0.073400
     10 C15          4.0090    -8.5590    10.6100 c5         1 ZXL       0.159600
     11 C17          3.7830   -10.2830    12.1980 c5         1 ZXL       0.144300
     12 C20         -0.9680    -3.4080    21.0070 cx         1 ZXL      -0.248700
     13 C21         -2.0970    -4.3410    21.3940 cx         1 ZXL      -0.086400
     14 C22         -0.9820    -4.0630    22.3730 cx         1 ZXL       0.006600
     15 C24         -0.6320    -2.0630    23.9250 cc         1 ZXL      -0.167000
     16 C26         -0.9750    -0.5320    25.9380 c3         1 ZXL       0.072900
     17 O2          -0.2500    -4.4240    18.9630 o          1 ZXL      -0.586100
     18 C19          0.0610    -3.8700    20.0080 c          1 ZXL       0.647100
     19 C23         -1.2300    -3.2400    23.5810 cd         1 ZXL      -0.184300
     20 C25         -2.1790    -3.5420    24.5790 cd         1 ZXL       0.253900
     21 N4          -2.2090    -2.6330    25.5360 nc         1 ZXL      -0.522800
     22 C            2.5730    -3.8560    19.7570 ca         1 ZXL       0.471900
     23 N            3.5840    -3.2480    20.4050 nb         1 ZXL      -0.721000
     24 C3           5.1160    -4.1880    18.7730 ca         1 ZXL      -0.126000
     25 Cl           8.3650    -5.2510    16.6230 cl         1 ZXL      -0.207000
     26 C2           4.0560    -4.8230    18.1070 ca         1 ZXL       0.016000
     27 C1           2.7560    -4.6540    18.6100 ca         1 ZXL      -0.172000
     28 C9           5.8450    -6.6350    15.2140 c6         1 ZXL      -0.023400
     29 C12          5.6260    -8.9370    14.1490 c6         1 ZXL       0.172300
     30 C11          5.3260    -6.9720    12.7340 c6         1 ZXL       0.172300
     31 C14          4.8330    -9.2580    11.7490 c5         1 ZXL       0.121200
     32 C18          6.1960    -9.8220    11.2720 c3         1 ZXL      -0.112100
     33 C16          3.0290   -10.6470    10.8690 c5         1 ZXL       0.140600
     34 O            3.4270    -9.6590     9.8880 os         1 ZXL      -0.454000
     35 H2           5.6350    -2.9090    20.4570 h4         1 ZXL       0.022100
     36 H3           7.2570    -3.8500    18.8040 ha         1 ZXL       0.132000
     37 H4           3.4690    -6.0890    16.4650 ha         1 ZXL       0.128000
     38 H5           5.4780    -5.0570    13.7540 hc         1 ZXL       0.054950
     39 H6           4.0360    -5.9790    14.1650 hc         1 ZXL       0.054950
     40 H7           4.3530    -8.1600    15.7220 hc         1 ZXL       0.054950
     41 H8           5.9860    -8.5450    16.2570 hc         1 ZXL       0.054950
     42 H9           4.6310    -7.9530     9.9380 h1         1 ZXL       0.053200
     43 H10          3.1980    -7.9290    11.0020 h1         1 ZXL       0.053200
     44 H11          4.2340   -11.1660    12.6730 h1         1 ZXL       0.054700
     45 H12         -1.2050    -2.3490    20.9610 hc         1 ZXL       0.090700
     46 H13         -3.0720    -3.9020    21.5940 hc         1 ZXL       0.083200
     47 H14         -2.1320    -5.3280    20.9370 hc         1 ZXL       0.083200
     48 H15         -0.2770    -4.8750    22.5490 hc         1 ZXL       0.103700
     49 H17         -1.8850     0.0750    26.0190 h1         1 ZXL       0.057033
     50 H18         -0.6500    -0.8380    26.9400 h1         1 ZXL       0.057033
     51 H19         -0.1840     0.0630    25.4670 h1         1 ZXL       0.057033
     52 H20         -2.8450    -4.3950    24.6330 h4         1 ZXL       0.041100
     53 H22          1.9190    -5.1380    18.1210 ha         1 ZXL       0.160000
     54 H23          6.9120    -6.6590    14.9630 hc         1 ZXL       0.064700
     55 H24          5.3340    -9.9750    14.3610 h1         1 ZXL       0.038700
     56 H25          6.7020    -8.9560    13.9180 h1         1 ZXL       0.038700
     57 H26          6.3930    -6.9740    12.4660 h1         1 ZXL       0.038700
     58 H27          4.7890    -6.5060    11.8970 h1         1 ZXL       0.038700
     59 H28          6.6690   -10.4450    12.0400 hc         1 ZXL       0.045033
     60 H29          6.0760   -10.4450    10.3780 hc         1 ZXL       0.045033
     61 H30          6.8900    -9.0120    11.0210 hc         1 ZXL       0.045033
     62 H32          1.9390   -10.6150    11.0000 h1         1 ZXL       0.054700
     63 H33          3.3070   -11.6430    10.5020 h1         1 ZXL       0.054700
     64 N2           1.3510    -3.5910    20.3840 ns         1 ZXL      -0.312900
     65 O1           3.0100    -9.5390    13.1380 oh         1 ZXL      -0.724000
     66 H16          0.1350    -1.4650    23.4500 h4         1 ZXL       0.151000
     67 H21          1.4450    -3.1040    21.2640 hn         1 ZXL       0.169000
     68 H31          3.6000    -8.7800    13.3610 ho         1 ZXL       0.536000
@<TRIPOS>BOND
     1     1    29 1   
     2     1    30 1   
     3     1    31 1   
     4     2    15 1   
     5     2    16 1   
     6     2    21 1   
     7     3    23 ar  
     8     3    24 ar  
     9     3    35 1   
    10     4     5 ar  
    11     4    24 ar  
    12     4    36 1   
    13     5     6 ar  
    14     5    25 1   
    15     6     7 ar  
    16     6    28 1   
    17     7    26 ar  
    18     7    37 1   
    19     8    28 1   
    20     8    30 1   
    21     8    38 1   
    22     8    39 1   
    23     9    28 1   
    24     9    29 1   
    25     9    40 1   
    26     9    41 1   
    27    10    31 1   
    28    10    34 1   
    29    10    42 1   
    30    10    43 1   
    31    11    31 1   
    32    11    33 1   
    33    11    44 1   
    34    11    65 1   
    35    12    13 1   
    36    12    14 1   
    37    12    18 1   
    38    12    45 1   
    39    13    14 1   
    40    13    46 1   
    41    13    47 1   
    42    14    19 1   
    43    14    48 1   
    44    15    19 2   
    45    15    66 1   
    46    16    49 1   
    47    16    50 1   
    48    16    51 1   
    49    17    18 2   
    50    18    64 1   
    51    19    20 1   
    52    20    21 2   
    53    20    52 1   
    54    22    23 ar  
    55    22    27 ar  
    56    22    64 1   
    57    24    26 ar  
    58    26    27 ar  
    59    27    53 1   
    60    28    54 1   
    61    29    55 1   
    62    29    56 1   
    63    30    57 1   
    64    30    58 1   
    65    31    32 1   
    66    32    59 1   
    67    32    60 1   
    68    32    61 1   
    69    33    34 1   
    70    33    62 1   
    71    33    63 1   
    72    64    67 1   
    73    65    68 1   
@<TRIPOS>SUBSTRUCTURE
     1 ZXL         1 TEMP              0 ****  ****    0 ROOT
