@<TRIPOS>MOLECULE
ZXL
   68    73     1     0     0
SMALL
abcg2


@<TRIPOS>ATOM
      1 N1           4.7900    -8.4460    13.0330 n3         1 ZXL      -0.746600
      2 N3          -1.8320    -2.4580    25.5270 na         1 ZXL       0.136800
      3 C4           5.2180    -2.6620    19.1630 ca         1 ZXL       0.401900
      4 C5           6.6040    -3.8560    17.4940 ca         1 ZXL      -0.065000
      5 C6           6.7010    -4.8580    16.5730 ca         1 ZXL       0.110000
      6 C7           5.6220    -5.7430    16.2920 ca         1 ZXL      -0.039300
      7 C8           4.4540    -5.5550    16.9880 ca         1 ZXL      -0.100000
      8 C10          5.4790    -6.2360    13.8440 c6         1 ZXL      -0.073400
      9 C13          4.8560    -8.0310    15.4450 c6         1 ZXL      -0.073400
     10 C15          4.3790    -8.7380    10.6030 c5         1 ZXL       0.159600
     11 C17          3.3950   -10.2380    12.1130 c5         1 ZXL       0.144300
     12 C20         -0.1920    -2.9470    21.3950 cx         1 ZXL      -0.248700
     13 C21         -1.6660    -3.0670    21.1350 cx         1 ZXL      -0.086400
     14 C22         -1.0730    -3.8430    22.2540 cx         1 ZXL       0.006600
     15 C24         -1.8140    -2.3110    24.1900 cc         1 ZXL      -0.167000
     16 C26         -2.2910    -1.5020    26.5050 c3         1 ZXL       0.072900
     17 O2           0.4580    -4.5960    19.8140 o          1 ZXL      -0.586100
     18 C19          0.7490    -3.5960    20.4480 c          1 ZXL       0.647100
     19 C23         -1.3180    -3.4860    23.6610 cd         1 ZXL      -0.184300
     20 C25         -1.0730    -4.2800    24.7950 cd         1 ZXL       0.253900
     21 N4          -1.3910    -3.6480    25.9120 nc         1 ZXL      -0.522800
     22 C            3.0620    -3.3080    19.5850 ca         1 ZXL       0.471900
     23 N            4.1090    -2.4850    19.8230 nb         1 ZXL      -0.721000
     24 C3           5.3990    -3.6760    18.1990 ca         1 ZXL      -0.126000
     25 CL           8.2080    -5.0420    15.7290 cl         1 ZXL      -0.207000
     26 C2           4.3060    -4.5310    17.9510 ca         1 ZXL       0.016000
     27 C1           3.1110    -4.3330    18.6690 ca         1 ZXL      -0.172000
     28 C9           5.7490    -6.8120    15.2380 c6         1 ZXL      -0.023400
     29 C12          5.0980    -9.0380    14.3300 c6         1 ZXL       0.172300
     30 C11          5.6530    -7.3030    12.7730 c6         1 ZXL       0.172300
     31 C14          4.6970    -9.4160    11.9450 c5         1 ZXL       0.121200
     32 C18          5.9130   -10.3310    11.8050 c3         1 ZXL      -0.112100
     33 C16          3.1200   -10.6820    10.6870 c5         1 ZXL       0.140600
     34 O            3.6930    -9.7010     9.8330 os         1 ZXL      -0.454000
     35 H2           6.0350    -1.9800    19.3820 h4         1 ZXL       0.022100
     36 H3           7.4420    -3.1980    17.6900 ha         1 ZXL       0.132000
     37 H4           3.6080    -6.2030    16.8020 ha         1 ZXL       0.128000
     38 H5           6.1530    -5.4060    13.6270 hc         1 ZXL       0.054950
     39 H6           4.4580    -5.8440    13.8090 hc         1 ZXL       0.054950
     40 H7           3.7980    -7.7540    15.4380 hc         1 ZXL       0.054950
     41 H8           5.0650    -8.4990    16.4090 hc         1 ZXL       0.054950
     42 H9           5.2780    -8.4290    10.0620 h1         1 ZXL       0.053200
     43 H10          3.7570    -7.8460    10.7580 h1         1 ZXL       0.053200
     44 H11          3.5340   -11.1050    12.7720 h1         1 ZXL       0.054700
     45 H12          0.1450    -2.0320    21.8690 hc         1 ZXL       0.090700
     46 H13         -2.2730    -2.2020    21.3700 hc         1 ZXL       0.083200
     47 H14         -1.9740    -3.6070    20.2490 hc         1 ZXL       0.083200
     48 H15         -0.9440    -4.9050    22.0760 hc         1 ZXL       0.103700
     49 H17         -3.1830    -1.8680    27.0120 h1         1 ZXL       0.057033
     50 H18         -1.5130    -1.3160    27.2420 h1         1 ZXL       0.057033
     51 H19         -2.5300    -0.5700    26.0020 h1         1 ZXL       0.057033
     52 H20         -0.6790    -5.2850    24.8260 h4         1 ZXL       0.041100
     53 H22          2.2660    -4.9770    18.4900 ha         1 ZXL       0.160000
     54 H23          6.7820    -7.1770    15.2490 hc         1 ZXL       0.064700
     55 H24          4.4670    -9.9130    14.4910 h1         1 ZXL       0.038700
     56 H25          6.1410    -9.3860    14.3830 h1         1 ZXL       0.038700
     57 H26          6.7140    -7.5970    12.7310 h1         1 ZXL       0.038700
     58 H27          5.4060    -6.8670    11.8050 h1         1 ZXL       0.038700
     59 H28          6.0160   -11.0070    12.6540 hc         1 ZXL       0.045033
     60 H29          5.8510   -10.9470    10.9070 hc         1 ZXL       0.045033
     61 H30          6.8310    -9.7450    11.7290 hc         1 ZXL       0.045033
     62 H32          2.0460   -10.7740    10.4980 h1         1 ZXL       0.054700
     63 H33          3.5760   -11.6570    10.4890 h1         1 ZXL       0.054700
     64 N2           1.9590    -2.9770    20.3640 ns         1 ZXL      -0.312900
     65 O1           2.3630    -9.4070    12.5830 oh         1 ZXL      -0.724000
     66 H16         -2.1480    -1.4000    23.7190 h4         1 ZXL       0.151000
     67 H21          2.1090    -2.1670    20.9490 hn         1 ZXL       0.169000
     68 H31          2.8210    -8.6500    12.9900 ho         1 ZXL       0.536000
@<TRIPOS>BOND
     1     1    29 1   
     2     1    30 1   
     3     1    31 1   
     4     2    15 1   
     5     2    16 1   
     6     2    21 1   
     7     3    23 ar  
     8     3    24 ar  
     9     3    35 1   
    10     4     5 ar  
    11     4    24 ar  
    12     4    36 1   
    13     5     6 ar  
    14     5    25 1   
    15     6     7 ar  
    16     6    28 1   
    17     7    26 ar  
    18     7    37 1   
    19     8    28 1   
    20     8    30 1   
    21     8    38 1   
    22     8    39 1   
    23     9    28 1   
    24     9    29 1   
    25     9    40 1   
    26     9    41 1   
    27    10    31 1   
    28    10    34 1   
    29    10    42 1   
    30    10    43 1   
    31    11    31 1   
    32    11    33 1   
    33    11    44 1   
    34    11    65 1   
    35    12    13 1   
    36    12    14 1   
    37    12    18 1   
    38    12    45 1   
    39    13    14 1   
    40    13    46 1   
    41    13    47 1   
    42    14    19 1   
    43    14    48 1   
    44    15    19 2   
    45    15    66 1   
    46    16    49 1   
    47    16    50 1   
    48    16    51 1   
    49    17    18 2   
    50    18    64 1   
    51    19    20 1   
    52    20    21 2   
    53    20    52 1   
    54    22    23 ar  
    55    22    27 ar  
    56    22    64 1   
    57    24    26 ar  
    58    26    27 ar  
    59    27    53 1   
    60    28    54 1   
    61    29    55 1   
    62    29    56 1   
    63    30    57 1   
    64    30    58 1   
    65    31    32 1   
    66    32    59 1   
    67    32    60 1   
    68    32    61 1   
    69    33    34 1   
    70    33    62 1   
    71    33    63 1   
    72    64    67 1   
    73    65    68 1   
@<TRIPOS>SUBSTRUCTURE
     1 ZXL         1 TEMP              0 ****  ****    0 ROOT
