@<TRIPOS>MOLECULE
ZXP
   68    73     1     0     0
SMALL
No Charge or Current Charge


@<TRIPOS>ATOM
      1 N1           0.4100    -3.4330    20.4230 ns         1 ZXP      -0.316900
      2 N3           4.6300    -8.1480    12.5800 n3         1 ZXP      -0.746600
      3 C4           1.6710    -4.5760    18.5900 ca         1 ZXP      -0.178000
      4 C5           1.5870    -3.8240    19.7780 ca         1 ZXP       0.473900
      5 C6          -0.9010    -3.7680    20.1960 c          1 ZXP       0.649100
      6 C7          -1.8580    -3.1170    21.1670 cx         1 ZXP      -0.247700
      7 C8          -2.0080    -3.6620    22.5780 cx         1 ZXP      -0.071000
      8 C10          0.0910    -4.4760    23.7890 c6         1 ZXP       0.157100
      9 C13         -3.1210    -3.8580    21.5740 cx         1 ZXP      -0.076400
     10 C15          4.0720    -4.4310    18.7740 ca         1 ZXP      -0.140000
     11 C17          5.5180    -5.4690    17.1080 ca         1 ZXP       0.100000
     12 C20          5.1040    -9.0710    11.4640 c5         1 ZXP       0.120200
     13 C21          6.3580    -9.9230    11.8020 c3         1 ZXP      -0.112100
     14 C22          3.8500    -9.9040    11.0150 c5         1 ZXP       0.144300
     15 C24          5.2740    -8.2160    10.1610 c5         1 ZXP       0.160600
     16 Cl           7.1640    -5.8290    16.5650 cl         1 ZXP      -0.192000
     17 C1           4.3810    -5.9340    16.3950 ca         1 ZXP       0.303000
     18 N            4.5160    -6.6860    15.1970 nh         1 ZXP      -0.781400
     19 C18          3.6550    -7.8780    14.9370 c6         1 ZXP       0.188300
     20 C19          4.2890    -8.8370    13.8790 c6         1 ZXP       0.167300
     21 O3           5.1220    -9.1670     9.0840 os         1 ZXP      -0.453000
     22 C23          4.1560   -10.1680     9.4990 c5         1 ZXP       0.141600
     23 O2           2.6890    -9.0990    11.2300 oh         1 ZXP      -0.723000
     24 C25          5.5440    -6.9940    12.8970 c6         1 ZXP       0.167300
     25 C            4.9390    -6.0000    13.9390 c6         1 ZXP       0.188300
     26 C16          5.3600    -4.7230    18.2900 ca         1 ZXP      -0.055000
     27 C3           2.9420    -4.8880    18.0760 ca         1 ZXP       0.036000
     28 C2           3.0950    -5.6350    16.8940 ca         1 ZXP      -0.162000
     29 C14          3.8870    -3.6840    19.9530 ca         1 ZXP       0.406900
     30 N2           2.6650    -3.3820    20.4520 nb         1 ZXP      -0.726000
     31 O           -1.2790    -4.5110    19.3010 o          1 ZXP      -0.585100
     32 C12         -2.2040    -2.6640    23.7370 c6         1 ZXP      -0.090400
     33 C11         -0.8550    -2.3390    24.4220 c6         1 ZXP       0.157100
     34 O1          -0.2210    -3.5610    24.8630 os         1 ZXP      -0.449000
     35 C9          -1.2090    -4.8950    23.0580 c6         1 ZXP      -0.090400
     36 H1           0.5620    -2.8130    21.2060 hn         1 ZXP       0.168000
     37 H3           0.7820    -4.9090    18.0690 ha         1 ZXP       0.158000
     38 H4          -1.9530    -2.0420    21.0380 hc         1 ZXP       0.088700
     39 H5           0.5890    -5.3620    24.2070 h1         1 ZXP       0.045950
     40 H6           0.7880    -3.9910    23.0910 h1         1 ZXP       0.045950
     41 H7          -4.0310    -3.2770    21.7020 hc         1 ZXP       0.086700
     42 H8          -3.2810    -4.8610    21.1830 hc         1 ZXP       0.086700
     43 H9           6.1670   -10.6040    12.6390 hc         1 ZXP       0.046033
     44 H10          6.6670   -10.5380    10.9480 hc         1 ZXP       0.046033
     45 H11          7.2090    -9.2880    12.0720 hc         1 ZXP       0.046033
     46 H12          3.7660   -10.8450    11.5760 h1         1 ZXP       0.054700
     47 H13          6.2560    -7.7280    10.0920 h1         1 ZXP       0.052700
     48 H14          4.4950    -7.4480    10.0650 h1         1 ZXP       0.052700
     49 H15          2.6690    -7.5560    14.5720 h1         1 ZXP       0.049200
     50 H16          3.4960    -8.4410    15.8680 h1         1 ZXP       0.049200
     51 H17          3.5910    -9.6700    13.7150 h1         1 ZXP       0.048200
     52 H18          5.1960    -9.2720    14.3220 h1         1 ZXP       0.048200
     53 H19          3.2540   -10.0900     8.8780 h1         1 ZXP       0.055700
     54 H20          4.5950   -11.1620     9.3460 h1         1 ZXP       0.055700
     55 H21          3.0950    -8.4250    11.8490 ho         1 ZXP       0.534000
     56 H22          6.4990    -7.3670    13.2940 h1         1 ZXP       0.048200
     57 H23          5.7810    -6.4180    11.9920 h1         1 ZXP       0.048200
     58 H24          5.6860    -5.2230    14.1550 h1         1 ZXP       0.049200
     59 H25          4.0730    -5.4990    13.4830 h1         1 ZXP       0.049200
     60 H26          6.2410    -4.3770    18.8260 ha         1 ZXP       0.132000
     61 H27          2.2160    -5.9740    16.3560 ha         1 ZXP       0.127000
     62 H28          4.7410    -3.3140    20.5190 h4         1 ZXP       0.022100
     63 H29         -2.6690    -1.7370    23.3740 hc         1 ZXP       0.061700
     64 H30         -2.8960    -3.0930    24.4740 hc         1 ZXP       0.061700
     65 H31         -0.1870    -1.8150    23.7230 h1         1 ZXP       0.045950
     66 H32         -1.0210    -1.6880    25.2920 h1         1 ZXP       0.045950
     67 H33         -1.8350    -5.4810    23.7440 hc         1 ZXP       0.061700
     68 H34         -0.9690    -5.5640    22.2200 hc         1 ZXP       0.061700
@<TRIPOS>BOND
     1     1     4 1   
     2     1     5 1   
     3     1    36 1   
     4     2    12 1   
     5     2    20 1   
     6     2    24 1   
     7     3     4 ar  
     8     3    27 ar  
     9     3    37 1   
    10     4    30 ar  
    11     5     6 1   
    12     5    31 2   
    13     6     7 1   
    14     6     9 1   
    15     6    38 1   
    16     7     9 1   
    17     7    32 1   
    18     7    35 1   
    19     8    34 1   
    20     8    35 1   
    21     8    39 1   
    22     8    40 1   
    23     9    41 1   
    24     9    42 1   
    25    10    26 ar  
    26    10    27 ar  
    27    10    29 ar  
    28    11    16 1   
    29    11    17 ar  
    30    11    26 ar  
    31    12    13 1   
    32    12    14 1   
    33    12    15 1   
    34    13    43 1   
    35    13    44 1   
    36    13    45 1   
    37    14    22 1   
    38    14    23 1   
    39    14    46 1   
    40    15    21 1   
    41    15    47 1   
    42    15    48 1   
    43    17    18 1   
    44    17    28 ar  
    45    18    19 1   
    46    18    25 1   
    47    19    20 1   
    48    19    49 1   
    49    19    50 1   
    50    20    51 1   
    51    20    52 1   
    52    21    22 1   
    53    22    53 1   
    54    22    54 1   
    55    23    55 1   
    56    24    25 1   
    57    24    56 1   
    58    24    57 1   
    59    25    58 1   
    60    25    59 1   
    61    26    60 1   
    62    27    28 ar  
    63    28    61 1   
    64    29    30 ar  
    65    29    62 1   
    66    32    33 1   
    67    32    63 1   
    68    32    64 1   
    69    33    34 1   
    70    33    65 1   
    71    33    66 1   
    72    35    67 1   
    73    35    68 1   
@<TRIPOS>SUBSTRUCTURE
     1 ZXP         1 TEMP              0 ****  ****    0 ROOT
