@<TRIPOS>MOLECULE
ZXP
   68    73     1     0     0
SMALL
abcg2


@<TRIPOS>ATOM
      1 N1           0.9380    -3.0950    20.4710 ns         1 ZXP      -0.316900
      2 N3           4.5650    -8.1200    12.8540 n3         1 ZXP      -0.746600
      3 C4           2.0920    -4.3580    18.7040 ca         1 ZXP      -0.178000
      4 C5           2.0500    -3.4050    19.6950 ca         1 ZXP       0.473900
      5 C6          -0.3400    -3.5620    20.3730 c          1 ZXP       0.649100
      6 C7          -1.2670    -2.9390    21.3530 cx         1 ZXP      -0.247700
      7 C8          -2.0870    -3.7800    22.3240 cx         1 ZXP      -0.071000
      8 C10         -0.7950    -5.6400    23.3340 c6         1 ZXP       0.157100
      9 C13         -2.7530    -3.1110    21.1840 cx         1 ZXP      -0.076400
     10 C15          4.4030    -3.7280    18.3310 ca         1 ZXP      -0.140000
     11 C17          5.7170    -4.7950    16.6320 ca         1 ZXP       0.100000
     12 C20          4.8790    -9.0910    11.8100 c5         1 ZXP       0.120200
     13 C21          6.1260    -9.9310    12.0830 c3         1 ZXP      -0.112100
     14 C22          3.6430    -9.9880    11.5640 c5         1 ZXP       0.144300
     15 C24          4.9700    -8.4200    10.4280 c5         1 ZXP       0.160600
     16 CL           7.2580    -5.0480    15.8830 cl         1 ZXP      -0.192000
     17 C1           4.6020    -5.5980    16.2310 ca         1 ZXP       0.303000
     18 N            4.7610    -6.5030    15.1850 nh         1 ZXP      -0.781400
     19 C18          3.8890    -7.6610    15.1540 c6         1 ZXP       0.188300
     20 C19          4.4620    -8.6870    14.1920 c6         1 ZXP       0.167300
     21 O3           4.6040    -9.4080     9.4890 os         1 ZXP      -0.453000
     22 C23          3.8700   -10.4400    10.1330 c5         1 ZXP       0.141600
     23 O2           2.4650    -9.2270    11.6640 oh         1 ZXP      -0.723000
     24 C25          5.4230    -6.9450    12.8810 c6         1 ZXP       0.167300
     25 C            4.8770    -5.9200    13.8530 c6         1 ZXP       0.188300
     26 C16          5.6210    -3.8820    17.6370 ca         1 ZXP      -0.055000
     27 C3           3.2950    -4.5320    17.9900 ca         1 ZXP       0.036000
     28 C2           3.4240    -5.4560    16.9300 ca         1 ZXP      -0.162000
     29 C14          4.2360    -2.8050    19.3810 ca         1 ZXP       0.406900
     30 N2           3.1180    -2.6460    20.0320 nb         1 ZXP      -0.726000
     31 O           -0.6800    -4.4070    19.5630 o          1 ZXP      -0.585100
     32 C12         -2.2320    -3.2040    23.7150 c6         1 ZXP      -0.090400
     33 C11         -1.0810    -3.6790    24.5900 c6         1 ZXP       0.157100
     34 O1          -0.9900    -5.0860    24.6170 os         1 ZXP      -0.449000
     35 C9          -1.9250    -5.2820    22.3790 c6         1 ZXP      -0.090400
     36 H1           1.1250    -2.3880    21.1670 hn         1 ZXP       0.168000
     37 H3           1.2330    -4.9610    18.4590 ha         1 ZXP       0.158000
     38 H4          -0.9350    -1.9870    21.7540 hc         1 ZXP       0.088700
     39 H5          -0.7280    -6.7220    23.4620 h1         1 ZXP       0.045950
     40 H6           0.1620    -5.2990    22.9110 h1         1 ZXP       0.045950
     41 H7          -3.3710    -2.2420    21.3780 hc         1 ZXP       0.086700
     42 H8          -3.0840    -3.7230    20.3540 hc         1 ZXP       0.086700
     43 H9           5.9890   -10.5970    12.9350 hc         1 ZXP       0.046033
     44 H10          6.3870   -10.5510    11.2250 hc         1 ZXP       0.046033
     45 H11          6.9860    -9.2910    12.2890 hc         1 ZXP       0.046033
     46 H12          3.6150   -10.8490    12.2450 h1         1 ZXP       0.054700
     47 H13          5.9780    -8.0660    10.1970 h1         1 ZXP       0.052700
     48 H14          4.2900    -7.5590    10.3750 h1         1 ZXP       0.052700
     49 H15          2.8650    -7.4050    14.8400 h1         1 ZXP       0.049200
     50 H16          3.8320    -8.1000    16.1510 h1         1 ZXP       0.049200
     51 H17          3.8000    -9.5550    14.1780 h1         1 ZXP       0.048200
     52 H18          5.4340    -9.0240    14.5770 h1         1 ZXP       0.048200
     53 H19          2.9240   -10.6170     9.6130 h1         1 ZXP       0.055700
     54 H20          4.4420   -11.3740    10.1110 h1         1 ZXP       0.055700
     55 H21          2.7150    -8.4430    12.1820 ho         1 ZXP       0.534000
     56 H22          6.4550    -7.1940    13.1700 h1         1 ZXP       0.048200
     57 H23          5.4600    -6.4840    11.8940 h1         1 ZXP       0.048200
     58 H24          5.5410    -5.0570    13.8660 h1         1 ZXP       0.049200
     59 H25          3.8950    -5.5680    13.5050 h1         1 ZXP       0.049200
     60 H26          6.4800    -3.2890    17.9270 ha         1 ZXP       0.132000
     61 H27          2.5600    -6.0480    16.6560 ha         1 ZXP       0.127000
     62 H28          5.0720    -2.1790    19.6790 h4         1 ZXP       0.022100
     63 H29         -2.2470    -2.1110    23.6930 hc         1 ZXP       0.061700
     64 H30         -3.1840    -3.5290    24.1450 hc         1 ZXP       0.061700
     65 H31         -0.1410    -3.2390    24.2250 h1         1 ZXP       0.045950
     66 H32         -1.2170    -3.3490    25.6210 h1         1 ZXP       0.045950
     67 H33         -2.8620    -5.7220    22.7360 hc         1 ZXP       0.061700
     68 H34         -1.7280    -5.7150    21.3990 hc         1 ZXP       0.061700
@<TRIPOS>BOND
     1     1     4 1   
     2     1     5 1   
     3     1    36 1   
     4     2    12 1   
     5     2    20 1   
     6     2    24 1   
     7     3     4 ar  
     8     3    27 ar  
     9     3    37 1   
    10     4    30 ar  
    11     5     6 1   
    12     5    31 2   
    13     6     7 1   
    14     6     9 1   
    15     6    38 1   
    16     7     9 1   
    17     7    32 1   
    18     7    35 1   
    19     8    34 1   
    20     8    35 1   
    21     8    39 1   
    22     8    40 1   
    23     9    41 1   
    24     9    42 1   
    25    10    26 ar  
    26    10    27 ar  
    27    10    29 ar  
    28    11    16 1   
    29    11    17 ar  
    30    11    26 ar  
    31    12    13 1   
    32    12    14 1   
    33    12    15 1   
    34    13    43 1   
    35    13    44 1   
    36    13    45 1   
    37    14    22 1   
    38    14    23 1   
    39    14    46 1   
    40    15    21 1   
    41    15    47 1   
    42    15    48 1   
    43    17    18 1   
    44    17    28 ar  
    45    18    19 1   
    46    18    25 1   
    47    19    20 1   
    48    19    49 1   
    49    19    50 1   
    50    20    51 1   
    51    20    52 1   
    52    21    22 1   
    53    22    53 1   
    54    22    54 1   
    55    23    55 1   
    56    24    25 1   
    57    24    56 1   
    58    24    57 1   
    59    25    58 1   
    60    25    59 1   
    61    26    60 1   
    62    27    28 ar  
    63    28    61 1   
    64    29    30 ar  
    65    29    62 1   
    66    32    33 1   
    67    32    63 1   
    68    32    64 1   
    69    33    34 1   
    70    33    65 1   
    71    33    66 1   
    72    35    67 1   
    73    35    68 1   
@<TRIPOS>SUBSTRUCTURE
     1 ZXP         1 TEMP              0 ****  ****    0 ROOT
