@<TRIPOS>MOLECULE
ZXU
   82    86     1     0     0
SMALL
No Charge or Current Charge


@<TRIPOS>ATOM
      1 N            3.9050    -0.0720    -0.2080 ns         1 ZXU      -0.487900
      2 CA           2.7750    -1.0120    -0.0240 c3         1 ZXU       0.045700
      3 CB           2.5670    -1.3470     1.4780 c3         1 ZXU      -0.038100
      4 CG           3.8130    -1.9100     2.1550 ca         1 ZXU      -0.127300
      5 CD1          4.1510    -3.2680     1.9990 ca         1 ZXU      -0.067500
      6 CE1          5.3020    -3.7880     2.6190 ca         1 ZXU      -0.173000
      7 CZ           6.1190    -2.9510     3.3950 ca         1 ZXU       0.144100
      8 OH           7.2360    -3.4470     3.9980 oh         1 ZXU      -0.532100
      9 CE2          5.7880    -1.5980     3.5540 ca         1 ZXU      -0.173000
     10 CD2          4.6380    -1.0760     2.9370 ca         1 ZXU      -0.067500
     11 C            1.4740    -0.4310    -0.6510 c          1 ZXU       0.595100
     12 OXT          1.3540     0.7440    -0.9780 o          1 ZXU      -0.586100
     13 N1           0.4510    -1.3420    -0.8250 ns         1 ZXU      -0.500900
     14 C2          -0.8740    -1.0170    -1.3590 c3         1 ZXU       0.106000
     15 C3          -1.7730    -0.3430    -0.3050 c3         1 ZXU      -0.105400
     16 C4          -3.1740    -0.0140    -0.8490 c3         1 ZXU       0.161600
     17 C7          -5.6520     2.3790     0.2610 c          1 ZXU       0.596900
     18 C8          -5.2410     0.9750     0.0430 cc         1 ZXU      -0.091100
     19 C9          -6.1220     0.0140    -0.4480 cd         1 ZXU       0.195900
     20 O7          -7.3800     0.4230    -0.8100 os         1 ZXU      -0.207200
     21 C11         -7.8940     1.6650    -0.5310 ca         1 ZXU       0.238100
     22 C12         -7.0860     2.6810    -0.0080 ca         1 ZXU      -0.383600
     23 C19         -6.0120    -1.4690    -0.3860 ca         1 ZXU      -0.076800
     24 C20         -5.1730    -2.1170     0.5520 ca         1 ZXU      -0.127000
     25 C21         -5.0940    -3.5210     0.6050 ca         1 ZXU       0.097100
     26 C22         -5.8710    -4.3030    -0.2830 ca         1 ZXU       0.137100
     27 C23         -6.7230    -3.6700    -1.2000 ca         1 ZXU      -0.193000
     28 C24         -6.7990    -2.2680    -1.2470 ca         1 ZXU      -0.059000
     29 O25         -4.2680    -4.1150     1.5270 oh         1 ZXU      -0.514100
     30 O26         -5.8150    -5.6720    -0.2550 oh         1 ZXU      -0.506100
     31 C33         -9.2460     1.9040    -0.8050 ca         1 ZXU      -0.237000
     32 C34         -9.7980     3.1610    -0.5510 ca         1 ZXU       0.245100
     33 C35         -9.0000     4.1830    -0.0310 ca         1 ZXU      -0.310000
     34 C36         -7.6500     3.9440     0.2370 ca         1 ZXU       0.291100
     35 O37         -3.9200     0.6040     0.2220 os         1 ZXU      -0.335100
     36 O39         -6.8960     4.9530     0.7360 oh         1 ZXU      -0.537100
     37 O40        -11.1110     3.3870    -0.8170 oh         1 ZXU      -0.521100
     38 C41          5.1930    -0.4330    -0.5230 c          1 ZXU       0.608300
     39 C42          6.1490     0.7050    -0.5680 ce         1 ZXU      -0.293200
     40 C43          7.4780     0.5860    -0.8600 cf         1 ZXU      -0.072200
     41 O45          5.5210    -1.5860    -0.7580 o          1 ZXU      -0.614100
     42 C54          8.5220     1.6300    -0.9320 ca         1 ZXU      -0.071800
     43 C55          8.2320     2.9890    -0.6840 ca         1 ZXU      -0.079000
     44 C56          9.2440     3.9620    -0.7600 ca         1 ZXU      -0.183000
     45 C57         10.5590     3.5920    -1.0850 ca         1 ZXU       0.123100
     46 C58         10.8620     2.2310    -1.3360 ca         1 ZXU       0.104100
     47 C59          9.8440     1.2630    -1.2580 ca         1 ZXU      -0.152000
     48 O60         11.5280     4.5580    -1.1520 oh         1 ZXU      -0.510100
     49 O61         12.1370     1.8390    -1.6560 oh         1 ZXU      -0.513100
     50 H3           3.7270     0.9170    -0.0790 hn         1 ZXU       0.326500
     51 HA           2.9980    -1.9420    -0.5620 h1         1 ZXU       0.060700
     52 HB2          2.2340    -0.4410     1.9980 hc         1 ZXU       0.064200
     53 HB3          1.7430    -2.0650     1.5760 hc         1 ZXU       0.064200
     54 HD1          3.5240    -3.9210     1.3950 ha         1 ZXU       0.113500
     55 HE1          5.5510    -4.8380     2.4890 ha         1 ZXU       0.123000
     56 HH           7.3090    -4.4000     3.7790 ho         1 ZXU       0.467000
     57 HE2          6.4220    -0.9510     4.1540 ha         1 ZXU       0.123000
     58 HD2          4.3910    -0.0240     3.0630 ha         1 ZXU       0.113500
     59 HN1          0.6350    -2.2980    -0.5440 hn         1 ZXU       0.313500
     60 H21         -0.7590    -0.3550    -2.2280 h1         1 ZXU       0.057200
     61 H2          -1.3480    -1.9460    -1.7040 h1         1 ZXU       0.057200
     62 H31         -1.8710    -1.0060     0.5620 hc         1 ZXU       0.059200
     63 H32         -1.2990     0.5820     0.0430 hc         1 ZXU       0.059200
     64 H41         -3.0860     0.6770    -1.6980 h1         1 ZXU       0.036200
     65 H4          -3.6460    -0.9340    -1.2100 h1         1 ZXU       0.036200
     66 H20         -4.5970    -1.5300     1.2610 ha         1 ZXU       0.140000
     67 H23         -7.3320    -4.2590    -1.8830 ha         1 ZXU       0.121000
     68 H24         -7.4630    -1.8040    -1.9730 ha         1 ZXU       0.129000
     69 HO25        -3.8360    -3.4190     2.0640 ho         1 ZXU       0.464000
     70 HO26        -6.4260    -6.0220    -0.9370 ho         1 ZXU       0.465000
     71 H33         -9.8640     1.1120    -1.2150 ha         1 ZXU       0.152000
     72 H35         -9.4180     5.1660     0.1670 ha         1 ZXU       0.138000
     73 HO39        -5.9830     4.5780     0.8210 ho         1 ZXU       0.526000
     74 HO40       -11.3110     4.3160    -0.5770 ho         1 ZXU       0.478000
     75 H42          5.7310     1.6830    -0.3460 ha         1 ZXU       0.177000
     76 H43          7.8470    -0.4210    -1.0730 ha         1 ZXU       0.195000
     77 H55          7.2240     3.3040    -0.4300 ha         1 ZXU       0.117000
     78 H56          8.9970     5.0030    -0.5640 ha         1 ZXU       0.117000
     79 H59         10.0790     0.2190    -1.4520 ha         1 ZXU       0.119000
     80 HO60        11.1190     5.4240    -0.9470 ho         1 ZXU       0.461000
     81 HO61        12.1430     0.8680    -1.7920 ho         1 ZXU       0.461000
     82 O38         -4.8860     3.2590     0.6460 o          1 ZXU      -0.579100
@<TRIPOS>BOND
     1     1     2 1   
     2     1    38 1   
     3     1    50 1   
     4     2     3 1   
     5     2    11 1   
     6     2    51 1   
     7     3     4 1   
     8     3    52 1   
     9     3    53 1   
    10     4     5 ar  
    11     4    10 ar  
    12     5     6 ar  
    13     5    54 1   
    14     6     7 ar  
    15     6    55 1   
    16     7     8 1   
    17     7     9 ar  
    18     8    56 1   
    19     9    10 ar  
    20     9    57 1   
    21    10    58 1   
    22    11    12 2   
    23    11    13 1   
    24    13    14 1   
    25    13    59 1   
    26    14    15 1   
    27    14    60 1   
    28    14    61 1   
    29    15    16 1   
    30    15    62 1   
    31    15    63 1   
    32    16    35 1   
    33    16    64 1   
    34    16    65 1   
    35    17    18 1   
    36    17    22 1   
    37    17    82 2   
    38    18    19 2   
    39    18    35 1   
    40    19    20 1   
    41    19    23 1   
    42    20    21 1   
    43    21    22 ar  
    44    21    31 ar  
    45    22    34 ar  
    46    23    24 ar  
    47    23    28 ar  
    48    24    25 ar  
    49    24    66 1   
    50    25    26 ar  
    51    25    29 1   
    52    26    27 ar  
    53    26    30 1   
    54    27    28 ar  
    55    27    67 1   
    56    28    68 1   
    57    29    69 1   
    58    30    70 1   
    59    31    32 ar  
    60    31    71 1   
    61    32    33 ar  
    62    32    37 1   
    63    33    34 ar  
    64    33    72 1   
    65    34    36 1   
    66    36    73 1   
    67    37    74 1   
    68    38    39 1   
    69    38    41 2   
    70    39    40 2   
    71    39    75 1   
    72    40    42 1   
    73    40    76 1   
    74    42    43 ar  
    75    42    47 ar  
    76    43    44 ar  
    77    43    77 1   
    78    44    45 ar  
    79    44    78 1   
    80    45    46 ar  
    81    45    48 1   
    82    46    47 ar  
    83    46    49 1   
    84    47    79 1   
    85    48    80 1   
    86    49    81 1   
@<TRIPOS>SUBSTRUCTURE
     1 ZXU         1 TEMP              0 ****  ****    0 ROOT
