@<TRIPOS>MOLECULE
ZXU
   82    86     1     0     0
SMALL
bcc


@<TRIPOS>ATOM
      1 N            4.0610    -0.2410     0.6810 ns         1 ZXU      -0.554900
      2 CA           2.8610    -1.0250     0.7600 c3         1 ZXU       0.045700
      3 CB           2.5150    -1.3190     2.2280 c3         1 ZXU      -0.038100
      4 CG           3.6260    -2.0180     2.9610 ca         1 ZXU      -0.127300
      5 CD1          3.9400    -3.3480     2.6950 ca         1 ZXU      -0.085500
      6 CE1          4.9800    -3.9890     3.3490 ca         1 ZXU      -0.191000
      7 CZ           5.7380    -3.3020     4.2960 ca         1 ZXU       0.144100
      8 OH           6.7620    -3.8730     4.9610 oh         1 ZXU      -0.493100
      9 CE2          5.4360    -1.9740     4.5770 ca         1 ZXU      -0.191000
     10 CD2          4.3910    -1.3490     3.9130 ca         1 ZXU      -0.085500
     11 C            1.6850    -0.2770     0.1300 c          1 ZXU       0.662100
     12 OXT          1.5490     0.9280     0.2670 o          1 ZXU      -0.586100
     13 N1           0.8030    -1.0590    -0.5060 ns         1 ZXU      -0.567900
     14 C2          -0.4530    -0.5700    -1.0260 c3         1 ZXU       0.106000
     15 C3          -1.5460    -0.5110     0.0370 c3         1 ZXU      -0.105400
     16 C4          -2.8290     0.0470    -0.5380 c3         1 ZXU       0.138400
     17 C7          -5.1860     2.0230     0.1620 c          1 ZXU       0.596900
     18 C8          -5.0050     0.5870     0.1190 cc         1 ZXU      -0.091100
     19 C9          -6.0050    -0.2270    -0.3060 cd         1 ZXU       0.195900
     20 O7          -7.1920     0.2690    -0.6970 os         1 ZXU      -0.207200
     21 C11         -7.4470     1.5920    -0.7090 ca         1 ZXU       0.238100
     22 C12         -6.4720     2.4960    -0.2830 ca         1 ZXU      -0.383600
     23 C19         -5.9490    -1.6860    -0.4190 ca         1 ZXU      -0.076800
     24 C20         -5.2710    -2.4620     0.5280 ca         1 ZXU      -0.145000
     25 C21         -5.2340    -3.8380     0.4220 ca         1 ZXU       0.097100
     26 C22         -5.8730    -4.4730    -0.6550 ca         1 ZXU       0.137100
     27 C23         -6.5460    -3.7020    -1.5910 ca         1 ZXU      -0.211000
     28 C24         -6.5960    -2.3210    -1.4750 ca         1 ZXU      -0.077000
     29 O25         -4.6130    -4.6370     1.3120 oh         1 ZXU      -0.475100
     30 O26         -5.7940    -5.8110    -0.7060 oh         1 ZXU      -0.467100
     31 C33         -8.6960     1.9880    -1.1440 ca         1 ZXU      -0.255000
     32 C34         -8.9770     3.3510    -1.1510 ca         1 ZXU       0.245100
     33 C35         -8.0330     4.2950    -0.7360 ca         1 ZXU      -0.328000
     34 C36         -6.7880     3.8760    -0.3030 ca         1 ZXU       0.291100
     35 O37         -3.8080     0.0850     0.5010 os         1 ZXU      -0.311900
     36 O39         -5.8960     4.7760     0.0920 oh         1 ZXU      -0.498100
     37 O40        -10.1910     3.7180    -1.5710 oh         1 ZXU      -0.482100
     38 C41          4.5920     0.1210    -0.5020 c          1 ZXU       0.675300
     39 C42          5.8510     0.8840    -0.4040 ce         1 ZXU      -0.243200
     40 C43          6.4900     1.3060    -1.5010 cf         1 ZXU      -0.022200
     41 O45          4.0600    -0.1830    -1.5650 o          1 ZXU      -0.614100
     42 C54          7.7470     2.0400    -1.5540 ca         1 ZXU      -0.071800
     43 C55          8.4920     2.3650    -0.4220 ca         1 ZXU      -0.097000
     44 C56          9.6870     3.0530    -0.5430 ca         1 ZXU      -0.201000
     45 C57         10.1700     3.4360    -1.7870 ca         1 ZXU       0.123100
     46 C58          9.4300     3.1220    -2.9360 ca         1 ZXU       0.104100
     47 C59          8.2390     2.4300    -2.8060 ca         1 ZXU      -0.170000
     48 O60         11.3250     4.1020    -1.9660 oh         1 ZXU      -0.471100
     49 O61          9.9380     3.5200    -4.1190 oh         1 ZXU      -0.474100
     50 H3           4.5200     0.0330     1.5350 hn         1 ZXU       0.326500
     51 HA           3.0130    -1.9780     0.2390 h1         1 ZXU       0.060700
     52 HB2          2.2690    -0.3810     2.7300 hc         1 ZXU       0.064200
     53 HB3          1.6090    -1.9300     2.2400 hc         1 ZXU       0.064200
     54 HD1          3.3630    -3.9040     1.9650 ha         1 ZXU       0.131500
     55 HE1          5.1990    -5.0270     3.1230 ha         1 ZXU       0.141000
     56 HH           6.8700    -4.7910     4.6890 ho         1 ZXU       0.428000
     57 HE2          6.0140    -1.4330     5.3150 ha         1 ZXU       0.141000
     58 HD2          4.1650    -0.3150     4.1500 ha         1 ZXU       0.131500
     59 HN1          0.9890    -2.0460    -0.5770 hn         1 ZXU       0.313500
     60 H21         -0.2940     0.4180    -1.4610 h1         1 ZXU       0.057200
     61 H2          -0.7530    -1.2300    -1.8400 h1         1 ZXU       0.057200
     62 H31         -1.7240    -1.5150     0.4320 hc         1 ZXU       0.059200
     63 H32         -1.2140     0.1170     0.8670 hc         1 ZXU       0.059200
     64 H41         -2.6630     1.0540    -0.9360 h1         1 ZXU       0.036200
     65 H4          -3.1880    -0.5810    -1.3610 h1         1 ZXU       0.036200
     66 H20         -4.7850    -1.9920     1.3730 ha         1 ZXU       0.158000
     67 H23         -7.0400    -4.1860    -2.4260 ha         1 ZXU       0.139000
     68 H24         -7.1250    -1.7540    -2.2280 ha         1 ZXU       0.147000
     69 HO25        -4.2230    -4.1110     2.0190 ho         1 ZXU       0.425000
     70 HO26        -6.2570    -6.1460    -1.4830 ho         1 ZXU       0.426000
     71 H33         -9.4340     1.2630    -1.4630 ha         1 ZXU       0.170000
     72 H35         -8.2680     5.3530    -0.7490 ha         1 ZXU       0.156000
     73 HO39        -5.0800     4.2880     0.3600 ho         1 ZXU       0.487000
     74 HO40       -10.2930     4.6760    -1.5370 ho         1 ZXU       0.439000
     75 H42          6.2440     1.0790     0.5880 ha         1 ZXU       0.127000
     76 H43          6.0390     1.0840    -2.4640 ha         1 ZXU       0.145000
     77 H55          8.1520     2.0850     0.5660 ha         1 ZXU       0.135000
     78 H56         10.2580     3.2940     0.3470 ha         1 ZXU       0.135000
     79 H59          7.6720     2.1860    -3.6990 ha         1 ZXU       0.137000
     80 HO60        11.7560     4.2530    -1.1170 ho         1 ZXU       0.422000
     81 HO61         9.3460     3.2660    -4.8360 ho         1 ZXU       0.422000
     82 O38         -4.2890     2.7900     0.5440 o          1 ZXU      -0.579100
@<TRIPOS>BOND
     1     1     2 1   
     2     1    38 1   
     3     1    50 1   
     4     2     3 1   
     5     2    11 1   
     6     2    51 1   
     7     3     4 1   
     8     3    52 1   
     9     3    53 1   
    10     4     5 ar  
    11     4    10 ar  
    12     5     6 ar  
    13     5    54 1   
    14     6     7 ar  
    15     6    55 1   
    16     7     8 1   
    17     7     9 ar  
    18     8    56 1   
    19     9    10 ar  
    20     9    57 1   
    21    10    58 1   
    22    11    12 2   
    23    11    13 1   
    24    13    14 1   
    25    13    59 1   
    26    14    15 1   
    27    14    60 1   
    28    14    61 1   
    29    15    16 1   
    30    15    62 1   
    31    15    63 1   
    32    16    35 1   
    33    16    64 1   
    34    16    65 1   
    35    17    18 1   
    36    17    22 1   
    37    17    82 2   
    38    18    19 2   
    39    18    35 1   
    40    19    20 1   
    41    19    23 1   
    42    20    21 1   
    43    21    22 ar  
    44    21    31 ar  
    45    22    34 ar  
    46    23    24 ar  
    47    23    28 ar  
    48    24    25 ar  
    49    24    66 1   
    50    25    26 ar  
    51    25    29 1   
    52    26    27 ar  
    53    26    30 1   
    54    27    28 ar  
    55    27    67 1   
    56    28    68 1   
    57    29    69 1   
    58    30    70 1   
    59    31    32 ar  
    60    31    71 1   
    61    32    33 ar  
    62    32    37 1   
    63    33    34 ar  
    64    33    72 1   
    65    34    36 1   
    66    36    73 1   
    67    37    74 1   
    68    38    39 1   
    69    38    41 2   
    70    39    40 2   
    71    39    75 1   
    72    40    42 1   
    73    40    76 1   
    74    42    43 ar  
    75    42    47 ar  
    76    43    44 ar  
    77    43    77 1   
    78    44    45 ar  
    79    44    78 1   
    80    45    46 ar  
    81    45    48 1   
    82    46    47 ar  
    83    46    49 1   
    84    47    79 1   
    85    48    80 1   
    86    49    81 1   
@<TRIPOS>SUBSTRUCTURE
     1 ZXU         1 TEMP              0 ****  ****    0 ROOT
