@<TRIPOS>MOLECULE
ZXW
   61    63     1     0     0
SMALL
No Charge or Current Charge


@<TRIPOS>ATOM
      1 N            5.0990     1.9390     3.1270 n8         1 ZXW      -1.001200
      2 CA           5.7270     1.1130     2.0270 c3         1 ZXW       0.019500
      3 CB           5.4490     1.7320     0.6280 c3         1 ZXW       0.078000
      4 O2A         -2.7650    -2.4780    -2.8840 o          1 ZXW      -0.855000
      5 PA          -1.4990    -3.1500    -2.4600 p5         1 ZXW       1.477800
      6 O1A         -1.0070    -4.1290    -3.4760 o          1 ZXW      -0.855000
      7 O3A         -0.3880    -2.1660    -1.9380 os         1 ZXW      -0.705800
      8 PB           0.4490    -1.4790    -3.0810 p5         1 ZXW       1.501800
      9 O1B          1.6450    -2.3120    -3.4130 o          1 ZXW      -0.853000
     10 O2B         -0.3570    -1.0870    -4.2770 o          1 ZXW      -0.853000
     11 O3B          0.8040    -0.2030    -2.2190 os         1 ZXW      -0.653800
     12 PG           2.0790     0.6090    -2.6730 p5         1 ZXW       1.273800
     13 O1G          3.3030     0.1020    -1.9820 o          1 ZXW      -0.808500
     14 O3G          2.2290     0.7950    -4.1480 o          1 ZXW      -0.808500
     15 S2G          1.5090     2.4550    -1.7890 ss         1 ZXW      -0.367400
     16 C32          1.6250     2.0720     0.0320 c3         1 ZXW      -0.099400
     17 C33          2.9990     2.3950     0.6420 c          1 ZXW       0.606100
     18 O35          3.1520     3.2830     1.4710 o          1 ZXW      -0.674100
     19 N34          4.0450     1.6190     0.2040 ns         1 ZXW      -0.527900
     20 O5          -1.7350    -3.9480    -1.0750 os         1 ZXW      -0.574400
     21 C5          -2.5500    -3.4300    -0.0070 c3         1 ZXW       0.230600
     22 C4          -1.8500    -2.2480     0.7370 c5         1 ZXW       0.139300
     23 O4          -2.2840    -0.9830     0.1570 os         1 ZXW      -0.366000
     24 C1          -2.8790    -0.1680     1.1830 c5         1 ZXW       0.335300
     25 C2          -3.4670    -1.2160     2.1800 c5         1 ZXW       0.061300
     26 O2          -3.8290    -0.6830     3.4700 oh         1 ZXW      -0.711000
     27 C3          -2.2400    -2.1630     2.2580 c5         1 ZXW       0.093300
     28 O3          -1.2100    -1.5840     3.0710 oh         1 ZXW      -0.714000
     29 N9          -3.7930     0.7950     0.5720 na         1 ZXW      -0.289300
     30 C8          -5.1890     0.7880     0.6700 cc         1 ZXW       0.435700
     31 N7          -5.7340     1.8260     0.0040 nd         1 ZXW      -0.548100
     32 C7          -4.6190     2.4950    -0.5130 ca         1 ZXW      -0.033600
     33 C6          -4.5570     3.6660    -1.3000 ca         1 ZXW       0.453900
     34 N6          -5.6630     4.3550    -1.6970 nv         1 ZXW      -1.071900
     35 N1          -3.3790     4.1660    -1.7080 nb         1 ZXW      -0.317000
     36 C10         -2.2740     3.4860    -1.3150 ca         1 ZXW       0.166900
     37 N3          -2.2400     2.3620    -0.5610 nb         1 ZXW      -0.218000
     38 C9          -3.4390     1.8820    -0.1750 ca         1 ZXW       0.161500
     39 C            7.2540     0.7870     2.1770 c          1 ZXW       0.584900
     40 O            8.0100     1.3660     2.9590 o          1 ZXW      -0.550100
     41 H1           5.7170     2.7340     3.3430 hn         1 ZXW       0.408500
     42 H2           4.2680     2.4080     2.7220 hn         1 ZXW       0.408500
     43 H4           5.2310     0.1310     2.0300 h1         1 ZXW       0.081700
     44 H5           5.7510     2.7890     0.6160 h1         1 ZXW       0.055700
     45 H6           6.0590     1.2090    -0.1220 h1         1 ZXW       0.055700
     46 H10          0.8760     2.6720     0.5640 h1         1 ZXW       0.067200
     47 H11          1.4030     1.0110     0.2020 h1         1 ZXW       0.067200
     48 H12          3.8160     0.9430    -0.5300 hn         1 ZXW       0.385500
     49 H13         -3.5330    -3.1080    -0.3770 h1         1 ZXW       0.002200
     50 H14         -2.7290    -4.2390     0.7130 h1         1 ZXW       0.002200
     51 H15         -0.7610    -2.3500     0.6270 h1         1 ZXW       0.082700
     52 H16         -2.0970     0.4240     1.6760 h2         1 ZXW       0.092700
     53 H17         -4.3220    -1.7360     1.7230 h1         1 ZXW       0.068700
     54 H18         -4.3720    -1.3630     3.9360 ho         1 ZXW       0.485000
     55 H19         -2.5200    -3.1470     2.6600 h1         1 ZXW       0.029700
     56 H20         -1.6950    -1.0740     3.7650 ho         1 ZXW       0.494000
     57 H21         -5.7350     0.0310     1.2200 h5         1 ZXW       0.096800
     58 H22         -6.5610     3.8890    -1.5880 hn         1 ZXW       0.482000
     59 H23         -5.5730     5.0080    -2.4710 hn         1 ZXW       0.482000
     60 H24         -1.3150     3.8860    -1.6380 h5         1 ZXW       0.010100
     61 H25          7.6320    -0.0270     1.5170 h4         1 ZXW      -0.025800
@<TRIPOS>BOND
     1     1     2 1   
     2     1    41 1   
     3     1    42 1   
     4     2     3 1   
     5     2    39 1   
     6     2    43 1   
     7     3    19 1   
     8     3    44 1   
     9     3    45 1   
    10     4     5 1   
    11     5     6 1   
    12     5     7 1   
    13     5    20 1   
    14     7     8 1   
    15     8     9 1   
    16     8    10 1   
    17     8    11 1   
    18    11    12 1   
    19    12    13 1   
    20    12    14 1   
    21    12    15 1   
    22    15    16 1   
    23    16    17 1   
    24    16    46 1   
    25    16    47 1   
    26    17    18 2   
    27    17    19 1   
    28    19    48 1   
    29    20    21 1   
    30    21    22 1   
    31    21    49 1   
    32    21    50 1   
    33    22    23 1   
    34    22    27 1   
    35    22    51 1   
    36    23    24 1   
    37    24    25 1   
    38    24    29 1   
    39    24    52 1   
    40    25    26 1   
    41    25    27 1   
    42    25    53 1   
    43    26    54 1   
    44    27    28 1   
    45    27    55 1   
    46    28    56 1   
    47    29    30 1   
    48    29    38 1   
    49    30    31 2   
    50    30    57 1   
    51    31    32 1   
    52    32    33 ar  
    53    32    38 ar  
    54    33    34 1   
    55    33    35 ar  
    56    34    58 1   
    57    34    59 1   
    58    35    36 ar  
    59    36    37 ar  
    60    36    60 1   
    61    37    38 ar  
    62    39    40 2   
    63    39    61 1   
@<TRIPOS>SUBSTRUCTURE
     1 ZXW         1 TEMP              0 ****  ****    0 ROOT
