@<TRIPOS>MOLECULE
ZXW
   61    63     1     0     0
SMALL
abcg2


@<TRIPOS>ATOM
      1 N            7.6050     2.1880     1.5070 n8         1 ZXW      -1.001200
      2 CA           7.3390     2.1370     0.0930 c3         1 ZXW       0.019500
      3 CB           5.9010     2.5100    -0.3320 c3         1 ZXW       0.078000
      4 O2A         -2.9420    -3.0230    -2.2160 o          1 ZXW      -0.855000
      5 PA          -1.7210    -3.1120    -1.3510 p5         1 ZXW       1.477800
      6 O1A         -0.5270    -3.9030    -1.7780 o          1 ZXW      -0.855000
      7 O3A         -1.2490    -1.6210    -0.8700 os         1 ZXW      -0.705800
      8 PB          -0.4680    -0.5010    -1.7670 p5         1 ZXW       1.501800
      9 O1B         -0.6630    -0.7860    -3.2210 o          1 ZXW      -0.853000
     10 O2B         -0.7080     0.8370    -1.1550 o          1 ZXW      -0.853000
     11 O3B          1.0930    -0.9490    -1.3690 os         1 ZXW      -0.653800
     12 PG           2.2640     0.1570    -1.1380 p5         1 ZXW       1.273800
     13 O1G          3.5130    -0.6150    -0.7920 o          1 ZXW      -0.808500
     14 O3G          2.2800     1.1630    -2.2430 o          1 ZXW      -0.808500
     15 S2G          1.5820     1.1110     0.6720 ss         1 ZXW      -0.367400
     16 C32          3.0910     1.0120     1.6960 c3         1 ZXW      -0.099400
     17 C33          4.1170     2.0500     1.2920 c          1 ZXW       0.606100
     18 O35          4.1680     3.1510     1.8260 o          1 ZXW      -0.674100
     19 N34          4.9280     1.6580     0.2950 ns         1 ZXW      -0.527900
     20 O5          -2.1410    -3.7170     0.1240 os         1 ZXW      -0.574400
     21 C5          -3.4570    -3.6540     0.6200 c3         1 ZXW       0.230600
     22 C4          -3.5700    -2.6770     1.7820 c5         1 ZXW       0.139300
     23 O4          -3.0720    -1.3910     1.4280 os         1 ZXW      -0.366000
     24 C1          -4.1140    -0.4710     1.2810 c5         1 ZXW       0.335300
     25 C2          -5.4050    -1.2880     1.2880 c5         1 ZXW       0.061300
     26 O2          -6.4580    -0.4970     1.7550 oh         1 ZXW      -0.711000
     27 C3          -5.0180    -2.4560     2.2010 c5         1 ZXW       0.093300
     28 O3          -5.0500    -2.0670     3.5500 oh         1 ZXW      -0.714000
     29 N9          -3.9350     0.3200     0.0930 na         1 ZXW      -0.289300
     30 C8          -4.0440    -0.0820    -1.2130 cc         1 ZXW       0.435700
     31 N7          -3.7990     0.8650    -2.0660 nd         1 ZXW      -0.548100
     32 C7          -3.4780     1.9470    -1.2920 ca         1 ZXW      -0.033600
     33 C6          -3.0340     3.2380    -1.6000 ca         1 ZXW       0.453900
     34 N6          -2.9090     3.6790    -2.8640 nv         1 ZXW      -1.071900
     35 N1          -2.7480     4.0670    -0.5920 nb         1 ZXW      -0.317000
     36 C10         -2.8830     3.6300     0.6580 ca         1 ZXW       0.166900
     37 N3          -3.2720     2.4370     1.0710 nb         1 ZXW      -0.218000
     38 C9          -3.5440     1.6270     0.0530 ca         1 ZXW       0.161500
     39 C            8.2930     2.9950    -0.6890 c          1 ZXW       0.584900
     40 O            9.1370     3.7070    -0.2070 o          1 ZXW      -0.550100
     41 H1           7.3640     3.0990     1.8790 hn         1 ZXW       0.408500
     42 H2           7.0110     1.5210     1.9830 hn         1 ZXW       0.408500
     43 H4           7.5190     1.1120    -0.2600 h1         1 ZXW       0.081700
     44 H5           5.6980     3.5460    -0.0600 h1         1 ZXW       0.055700
     45 H6           5.7980     2.4290    -1.4160 h1         1 ZXW       0.055700
     46 H10          2.7700     1.2190     2.7170 h1         1 ZXW       0.067200
     47 H11          3.4970     0.0030     1.6650 h1         1 ZXW       0.067200
     48 H12          4.7210     0.7590    -0.1360 hn         1 ZXW       0.385500
     49 H13         -4.1680    -3.4090    -0.1740 h1         1 ZXW       0.002200
     50 H14         -3.7350    -4.6460     0.9920 h1         1 ZXW       0.002200
     51 H15         -2.9760    -3.0520     2.6210 h1         1 ZXW       0.082700
     52 H16         -4.1230     0.2420     2.1120 h2         1 ZXW       0.092700
     53 H17         -5.6150    -1.6780     0.2840 h1         1 ZXW       0.068700
     54 H18         -7.2920    -0.9030     1.4940 ho         1 ZXW       0.485000
     55 H19         -5.6430    -3.3400     2.0190 h1         1 ZXW       0.029700
     56 H20         -5.8560    -1.5550     3.6880 ho         1 ZXW       0.494000
     57 H21         -4.2880    -1.0980    -1.4780 h5         1 ZXW       0.096800
     58 H22         -2.9220     3.0120    -3.6170 hn         1 ZXW       0.482000
     59 H23         -2.4050     4.5330    -3.0280 hn         1 ZXW       0.482000
     60 H24         -2.6390     4.3490     1.4330 h5         1 ZXW       0.010100
     61 H25          8.1560     2.9360    -1.7840 h4         1 ZXW      -0.025800
@<TRIPOS>BOND
     1     1     2 1   
     2     1    41 1   
     3     1    42 1   
     4     2     3 1   
     5     2    39 1   
     6     2    43 1   
     7     3    19 1   
     8     3    44 1   
     9     3    45 1   
    10     4     5 1   
    11     5     6 1   
    12     5     7 1   
    13     5    20 1   
    14     7     8 1   
    15     8     9 1   
    16     8    10 1   
    17     8    11 1   
    18    11    12 1   
    19    12    13 1   
    20    12    14 1   
    21    12    15 1   
    22    15    16 1   
    23    16    17 1   
    24    16    46 1   
    25    16    47 1   
    26    17    18 2   
    27    17    19 1   
    28    19    48 1   
    29    20    21 1   
    30    21    22 1   
    31    21    49 1   
    32    21    50 1   
    33    22    23 1   
    34    22    27 1   
    35    22    51 1   
    36    23    24 1   
    37    24    25 1   
    38    24    29 1   
    39    24    52 1   
    40    25    26 1   
    41    25    27 1   
    42    25    53 1   
    43    26    54 1   
    44    27    28 1   
    45    27    55 1   
    46    28    56 1   
    47    29    30 1   
    48    29    38 1   
    49    30    31 2   
    50    30    57 1   
    51    31    32 1   
    52    32    33 ar  
    53    32    38 ar  
    54    33    34 1   
    55    33    35 ar  
    56    34    58 1   
    57    34    59 1   
    58    35    36 ar  
    59    36    37 ar  
    60    36    60 1   
    61    37    38 ar  
    62    39    40 2   
    63    39    61 1   
@<TRIPOS>SUBSTRUCTURE
     1 ZXW         1 TEMP              0 ****  ****    0 ROOT
