@<TRIPOS>MOLECULE
ZXX
   64    65     1     0     0
SMALL
No Charge or Current Charge


@<TRIPOS>ATOM
      1 C30         17.4210     6.6810    49.6000 c          1 ZXX       0.591100
      2 O32         17.9230     6.4340    48.5160 o          1 ZXX      -0.582100
      3 C31         15.9770     7.1350    49.7470 c3         1 ZXX      -0.181100
      4 N04         18.1240     6.6040    50.7840 ns         1 ZXX      -0.517900
      5 C02         19.5120     6.0850    50.9730 c3         1 ZXX       0.044700
      6 C01         20.6050     7.0950    50.4850 c          1 ZXX       0.610100
      7 O06         21.6870     7.2110    51.0460 o          1 ZXX      -0.590100
      8 C03         19.7130     4.6350    50.4160 c3         1 ZXX      -0.063700
      9 C28         21.1180     4.0640    50.7310 c3         1 ZXX      -0.089100
     10 C29         18.6200     3.6560    50.9190 c3         1 ZXX      -0.089100
     11 N05         20.2500     7.9330    49.4510 ns         1 ZXX      -0.493900
     12 C08         21.1210     8.9700    48.8520 c3         1 ZXX       0.061700
     13 C10         22.0890     8.3120    47.8360 c3         1 ZXX      -0.042100
     14 C11         23.0740     9.2740    47.1830 ca         1 ZXX      -0.038300
     15 C12         22.7650     9.8760    45.9470 ca         1 ZXX      -0.143000
     16 C13         23.6900    10.7280    45.3200 ca         1 ZXX      -0.083000
     17 C16         24.3200     9.5360    47.7860 ca         1 ZXX      -0.195000
     18 C15         25.2460    10.3850    47.1570 ca         1 ZXX       0.134100
     19 C14         24.9330    10.9790    45.9250 ca         1 ZXX      -0.143000
     20 O17         26.4490    10.6400    47.7420 oh         1 ZXX      -0.537100
     21 C07         20.2420    10.0720    48.1840 c          1 ZXX       0.625100
     22 O09         19.2150     9.7760    47.5770 o          1 ZXX      -0.617100
     23 C21         19.9330    12.5380    47.6110 c6         1 ZXX       0.074000
     24 N22         21.7450    11.8920    49.1620 n7         1 ZXX      -0.585400
     25 C23         22.7670    12.7420    48.4790 c6         1 ZXX       0.080500
     26 C27         25.3750    14.8790    50.2710 c3         1 ZXX       0.155900
     27 C19         22.0570    13.9560    47.8110 c6         1 ZXX      -0.100400
     28 C20         20.9170    13.4810    46.8750 c6         1 ZXX      -0.098400
     29 C24         23.9650    13.1130    49.4170 c          1 ZXX       0.596100
     30 N18         20.6590    11.4340    48.2970 n          1 ZXX      -0.285200
     31 O26         24.2820    14.4510    49.4370 os         1 ZXX      -0.436100
     32 H19         15.4560     7.2020    48.7850 hc         1 ZXX       0.060700
     33 H20         15.4610     6.4620    50.4410 hc         1 ZXX       0.060700
     34 H21         15.9550     8.0880    50.2860 hc         1 ZXX       0.060700
     35 H30         17.6040     6.8600    51.6170 hn         1 ZXX       0.314500
     36 H22         19.6580     6.0240    52.0590 h1         1 ZXX       0.063700
     37 H23         19.6330     4.6750    49.3230 hc         1 ZXX       0.086700
     38 H13         21.9050     4.6470    50.2390 hc         1 ZXX       0.035033
     39 H14         21.3090     4.0650    51.8110 hc         1 ZXX       0.035033
     40 H15         21.2070     3.0310    50.3710 hc         1 ZXX       0.035033
     41 H16         17.6210     3.9680    50.5910 hc         1 ZXX       0.035033
     42 H17         18.7920     2.6470    50.5250 hc         1 ZXX       0.035033
     43 H18         18.6210     3.6000    52.0140 hc         1 ZXX       0.035033
     44 H31         19.3460     7.7550    49.0220 hn         1 ZXX       0.319500
     45 H24         21.7070     9.4390    49.6510 h1         1 ZXX       0.111700
     46 H3          21.4980     7.8070    47.0620 hc         1 ZXX       0.058700
     47 H4          22.6470     7.5160    48.3450 hc         1 ZXX       0.058700
     48 H5          21.8080     9.6790    45.4680 ha         1 ZXX       0.123000
     49 H6          23.4450    11.1900    44.3650 ha         1 ZXX       0.115000
     50 H25         24.5640     9.0730    48.7390 ha         1 ZXX       0.121000
     51 H7          25.6510    11.6370    45.4410 ha         1 ZXX       0.129000
     52 H32         26.4600    10.2070    48.6220 ho         1 ZXX       0.467000
     53 H1          19.2090    12.1400    46.8860 h1         1 ZXX       0.065200
     54 H2          19.3660    13.1090    48.3590 h1         1 ZXX       0.065200
     55 H8          21.3560    12.3770    49.9870 hn         1 ZXX       0.442000
     56 H9          23.2250    12.1540    47.6750 h1         1 ZXX       0.107700
     57 H10         25.5150    15.9650    50.1900 h1         1 ZXX       0.049033
     58 H11         25.1800    14.6400    51.3250 h1         1 ZXX       0.049033
     59 H12         26.3120    14.3920    49.9710 h1         1 ZXX       0.049033
     60 H26         21.6490    14.6230    48.5830 hc         1 ZXX       0.057200
     61 H27         22.7810    14.5470    47.2330 hc         1 ZXX       0.057200
     62 H28         21.3500    12.9490    46.0160 hc         1 ZXX       0.054200
     63 H29         20.3750    14.3450    46.4680 hc         1 ZXX       0.054200
     64 O25         24.5660    12.2730    50.0770 o          1 ZXX      -0.476000
@<TRIPOS>BOND
     1     1     2 2   
     2     1     3 1   
     3     1     4 1   
     4     3    32 1   
     5     3    33 1   
     6     3    34 1   
     7     4     5 1   
     8     4    35 1   
     9     5     6 1   
    10     5     8 1   
    11     5    36 1   
    12     6     7 2   
    13     6    11 1   
    14     8     9 1   
    15     8    10 1   
    16     8    37 1   
    17     9    38 1   
    18     9    39 1   
    19     9    40 1   
    20    10    41 1   
    21    10    42 1   
    22    10    43 1   
    23    11    12 1   
    24    11    44 1   
    25    12    13 1   
    26    12    21 1   
    27    12    45 1   
    28    13    14 1   
    29    13    46 1   
    30    13    47 1   
    31    14    15 ar  
    32    14    17 ar  
    33    15    16 ar  
    34    15    48 1   
    35    16    19 ar  
    36    16    49 1   
    37    17    18 ar  
    38    17    50 1   
    39    18    19 ar  
    40    18    20 1   
    41    19    51 1   
    42    20    52 1   
    43    21    22 2   
    44    21    30 1   
    45    23    28 1   
    46    23    30 1   
    47    23    53 1   
    48    23    54 1   
    49    24    25 1   
    50    24    30 1   
    51    24    55 1   
    52    25    27 1   
    53    25    29 1   
    54    25    56 1   
    55    26    31 1   
    56    26    57 1   
    57    26    58 1   
    58    26    59 1   
    59    27    28 1   
    60    27    60 1   
    61    27    61 1   
    62    28    62 1   
    63    28    63 1   
    64    29    31 1   
    65    29    64 2   
@<TRIPOS>SUBSTRUCTURE
     1 ZXX         1 TEMP              0 ****  ****    0 ROOT
