@<TRIPOS>MOLECULE
ZXX
   64    65     1     0     0
SMALL
bcc


@<TRIPOS>ATOM
      1 C30         20.1990     4.8590    48.9150 c          1 ZXX       0.658100
      2 O32         21.2460     5.1550    49.4720 o          1 ZXX      -0.582100
      3 C31         20.1160     3.7770    47.8710 c3         1 ZXX      -0.181100
      4 N04         19.0390     5.4800    49.2030 ns         1 ZXX      -0.584900
      5 C02         18.9260     6.4640    50.2580 c3         1 ZXX       0.044700
      6 C01         19.9000     7.6230    50.0030 c          1 ZXX       0.677100
      7 O06         20.5250     8.1790    50.8920 o          1 ZXX      -0.590100
      8 C03         19.0190     5.8990    51.6890 c3         1 ZXX      -0.063700
      9 C28         18.3430     6.8520    52.6740 c3         1 ZXX      -0.089100
     10 C29         18.3620     4.5250    51.7880 c3         1 ZXX      -0.089100
     11 N05         19.9710     8.0320    48.7280 ns         1 ZXX      -0.560900
     12 C08         20.7830     9.1610    48.3460 c3         1 ZXX       0.061700
     13 C10         20.8020     9.2440    46.8150 c3         1 ZXX      -0.042100
     14 C11         21.7090    10.3180    46.2860 ca         1 ZXX      -0.038300
     15 C12         21.2000    11.5420    45.8680 ca         1 ZXX      -0.161000
     16 C13         22.0610    12.5190    45.3800 ca         1 ZXX      -0.101000
     17 C16         23.0820    10.0900    46.2160 ca         1 ZXX      -0.213000
     18 C15         23.9400    11.0680    45.7250 ca         1 ZXX       0.134100
     19 C14         23.4250    12.2930    45.3030 ca         1 ZXX      -0.161000
     20 O17         25.2730    10.8820    45.6360 oh         1 ZXX      -0.498100
     21 C07         20.1650    10.4320    48.9390 c          1 ZXX       0.692100
     22 O09         18.9590    10.6100    48.8570 o          1 ZXX      -0.617100
     23 C21         20.5000    12.5530    50.1450 c6         1 ZXX       0.074000
     24 N22         22.3470    11.0900    49.6050 n7         1 ZXX      -0.530200
     25 C23         23.0940    12.1880    49.0110 c6         1 ZXX       0.080500
     26 C27         26.6930    12.5500    48.3460 c3         1 ZXX       0.132700
     27 C19         22.7510    13.5430    49.6430 c6         1 ZXX      -0.100400
     28 C20         21.2430    13.7500    49.5680 c6         1 ZXX      -0.098400
     29 C24         24.5670    11.8710    49.0900 c          1 ZXX       0.645100
     30 N18         20.9830    11.3260    49.5320 n          1 ZXX      -0.352200
     31 O26         25.2760    12.7240    48.3740 os         1 ZXX      -0.412900
     32 H19         20.9560     3.8660    47.1830 hc         1 ZXX       0.060700
     33 H20         20.1920     2.8030    48.3560 hc         1 ZXX       0.060700
     34 H21         19.1900     3.7990    47.3000 hc         1 ZXX       0.060700
     35 H30         18.1900     5.1490    48.7770 hn         1 ZXX       0.314500
     36 H22         17.9210     6.8870    50.1410 h1         1 ZXX       0.063700
     37 H23         20.0710     5.7980    51.9620 hc         1 ZXX       0.086700
     38 H13         18.7510     7.8590    52.6260 hc         1 ZXX       0.035033
     39 H14         17.2700     6.9110    52.4750 hc         1 ZXX       0.035033
     40 H15         18.4660     6.4950    53.6980 hc         1 ZXX       0.035033
     41 H16         18.8720     3.7670    51.1960 hc         1 ZXX       0.035033
     42 H17         18.3710     4.1850    52.8250 hc         1 ZXX       0.035033
     43 H18         17.3180     4.5580    51.4650 hc         1 ZXX       0.035033
     44 H31         19.3920     7.5880    48.0320 hn         1 ZXX       0.319500
     45 H24         21.7990     9.0190    48.7080 h1         1 ZXX       0.111700
     46 H3          19.7840     9.4010    46.4510 hc         1 ZXX       0.058700
     47 H4          21.1300     8.2720    46.4390 hc         1 ZXX       0.058700
     48 H5          20.1350    11.7320    45.9160 ha         1 ZXX       0.141000
     49 H6          21.6640    13.4710    45.0520 ha         1 ZXX       0.133000
     50 H25         23.4820     9.1350    46.5430 ha         1 ZXX       0.139000
     51 H7          24.0910    13.0560    44.9200 ha         1 ZXX       0.147000
     52 H32         25.5110    10.0010    45.9470 ho         1 ZXX       0.428000
     53 H1          19.4300    12.6370    49.9780 h1         1 ZXX       0.065200
     54 H2          20.6650    12.4900    51.2260 h1         1 ZXX       0.065200
     55 H8          22.6060    10.9580    50.5780 hn         1 ZXX       0.386800
     56 H9          22.8180    12.2310    47.9540 h1         1 ZXX       0.107700
     57 H10         27.0700    13.2950    47.6520 h1         1 ZXX       0.049033
     58 H11         27.1300    12.7180    49.3310 h1         1 ZXX       0.049033
     59 H12         26.9660    11.5570    47.9940 h1         1 ZXX       0.049033
     60 H26         23.0800    13.5580    50.6870 hc         1 ZXX       0.057200
     61 H27         23.2710    14.3500    49.1260 hc         1 ZXX       0.057200
     62 H28         20.9420    13.8900    48.5250 hc         1 ZXX       0.054200
     63 H29         20.9530    14.6500    50.1110 hc         1 ZXX       0.054200
     64 O25         25.0420    10.9680    49.7320 o          1 ZXX      -0.525000
@<TRIPOS>BOND
     1     1     2 2   
     2     1     3 1   
     3     1     4 1   
     4     3    32 1   
     5     3    33 1   
     6     3    34 1   
     7     4     5 1   
     8     4    35 1   
     9     5     6 1   
    10     5     8 1   
    11     5    36 1   
    12     6     7 2   
    13     6    11 1   
    14     8     9 1   
    15     8    10 1   
    16     8    37 1   
    17     9    38 1   
    18     9    39 1   
    19     9    40 1   
    20    10    41 1   
    21    10    42 1   
    22    10    43 1   
    23    11    12 1   
    24    11    44 1   
    25    12    13 1   
    26    12    21 1   
    27    12    45 1   
    28    13    14 1   
    29    13    46 1   
    30    13    47 1   
    31    14    15 ar  
    32    14    17 ar  
    33    15    16 ar  
    34    15    48 1   
    35    16    19 ar  
    36    16    49 1   
    37    17    18 ar  
    38    17    50 1   
    39    18    19 ar  
    40    18    20 1   
    41    19    51 1   
    42    20    52 1   
    43    21    22 2   
    44    21    30 1   
    45    23    28 1   
    46    23    30 1   
    47    23    53 1   
    48    23    54 1   
    49    24    25 1   
    50    24    30 1   
    51    24    55 1   
    52    25    27 1   
    53    25    29 1   
    54    25    56 1   
    55    26    31 1   
    56    26    57 1   
    57    26    58 1   
    58    26    59 1   
    59    27    28 1   
    60    27    60 1   
    61    27    61 1   
    62    28    62 1   
    63    28    63 1   
    64    29    31 1   
    65    29    64 2   
@<TRIPOS>SUBSTRUCTURE
     1 ZXX         1 TEMP              0 ****  ****    0 ROOT
