@<TRIPOS>MOLECULE
ZXY
   75    79     1     0     0
SMALL
bcc


@<TRIPOS>ATOM
      1 N            4.4810     0.5490     2.2990 n          1 ZXY      -0.464800
      2 CA           3.1690     0.4660     2.9010 c5         1 ZXY       0.032700
      3 CB           3.3420     1.2120     4.2310 c5         1 ZXY      -0.083400
      4 CG           4.4290     2.2360     3.9280 c5         1 ZXY      -0.094400
      5 CD           5.3660     1.4890     2.9850 c5         1 ZXY       0.114000
      6 C            2.1250     1.1450     2.0200 c          1 ZXY       0.663100
      7 O            2.3980     2.0940     1.3010 o          1 ZXY      -0.594100
      8 N1           0.8840     0.6590     2.1530 ns         1 ZXY      -0.571900
      9 C2          -0.2520     1.2080     1.4440 c3         1 ZXY       0.107000
     10 C3          -1.5370     0.5490     1.9220 c3         1 ZXY      -0.100400
     11 C4          -2.7220     1.0520     1.1270 c3         1 ZXY       0.137400
     12 O5          -3.8960     0.3890     1.6010 os         1 ZXY      -0.313900
     13 C6          -4.9540     0.4310     0.7570 cc         1 ZXY      -0.092100
     14 C7          -5.0780    -0.4690    -0.2510 cd         1 ZXY       0.193900
     15 O6          -6.1120    -0.4270    -1.1070 os         1 ZXY      -0.207200
     16 C9          -7.0720     0.5140    -1.0190 ca         1 ZXY       0.244100
     17 C10         -7.0220     1.4760    -0.0100 ca         1 ZXY      -0.380600
     18 C11         -5.9350     1.4810     0.9380 c          1 ZXY       0.601900
     19 C12         -8.0840     0.4670    -1.9590 ca         1 ZXY      -0.318000
     20 C13         -9.0880     1.4270    -1.8800 ca         1 ZXY       0.244100
     21 C14         -9.0810     2.4120    -0.8870 ca         1 ZXY      -0.263000
     22 C15         -8.0580     2.4420     0.0410 ca         1 ZXY       0.282100
     23 O16         -5.8360     2.3280     1.8360 o          1 ZXY      -0.580100
     24 O17         -8.0560     3.3840     0.9780 oh         1 ZXY      -0.495100
     25 O18        -10.1040     1.4550    -2.7480 oh         1 ZXY      -0.478100
     26 C19         -4.1300    -1.5370    -0.5790 ca         1 ZXY      -0.087800
     27 C20         -3.4960    -2.2770     0.4240 ca         1 ZXY      -0.131000
     28 C21         -2.5920    -3.2690     0.0990 ca         1 ZXY       0.031100
     29 C22         -2.2990    -3.5420    -1.2460 ca         1 ZXY       0.155100
     30 C23         -2.9370    -2.8140    -2.2380 ca         1 ZXY      -0.155000
     31 C24         -3.8500    -1.8240    -1.9130 ca         1 ZXY      -0.078000
     32 O25         -1.4180    -4.4930    -1.5960 oh         1 ZXY      -0.485100
     33 O26         -1.9440    -4.0270     1.0100 oh         1 ZXY      -0.517100
     34 C27          4.7360    -0.1410     1.1710 c          1 ZXY       0.683300
     35 C28          6.1000    -0.0380     0.6150 ce         1 ZXY      -0.238200
     36 C29          6.4400    -0.7220    -0.4850 cf         1 ZXY      -0.024200
     37 O30          3.8630    -0.8360     0.6520 o          1 ZXY      -0.618100
     38 C31          7.7400    -0.7290    -1.1420 ca         1 ZXY      -0.069800
     39 C32          8.8160     0.0540    -0.7240 ca         1 ZXY      -0.104000
     40 C33         10.0280    -0.0070    -1.3870 ca         1 ZXY      -0.186000
     41 C34         10.1980    -0.8500    -2.4780 ca         1 ZXY       0.057100
     42 C35          9.1270    -1.6410    -2.9160 ca         1 ZXY       0.117100
     43 C36          7.9190    -1.5700    -2.2460 ca         1 ZXY      -0.117000
     44 O37         11.3500    -0.9670    -3.1680 oh         1 ZXY      -0.515100
     45 O38          9.2430    -2.4710    -3.9730 oh         1 ZXY      -0.494100
     46 HA           2.8870    -0.5770     3.0710 h1         1 ZXY       0.073700
     47 HB3          2.4120     1.6550     4.5870 hc         1 ZXY       0.056700
     48 HB2          3.6810     0.5080     4.9920 hc         1 ZXY       0.056700
     49 HG3          4.0090     3.1070     3.4240 hc         1 ZXY       0.063200
     50 HG2          4.9430     2.5840     4.8220 hc         1 ZXY       0.063200
     51 HD3          6.1430     0.9550     3.5390 h1         1 ZXY       0.047200
     52 HD2          5.8550     2.1660     2.2860 h1         1 ZXY       0.047200
     53 HN1          0.7440    -0.1710     2.7050 hn         1 ZXY       0.312500
     54 H21         -0.3000     2.2870     1.6080 h1         1 ZXY       0.054700
     55 H2          -0.1340     1.0550     0.3670 h1         1 ZXY       0.054700
     56 H3          -1.4590    -0.5350     1.7980 hc         1 ZXY       0.054200
     57 H31         -1.6830     0.7500     2.9860 hc         1 ZXY       0.054200
     58 H4          -2.8370     2.1360     1.2350 h1         1 ZXY       0.042200
     59 H41         -2.5780     0.8360     0.0630 h1         1 ZXY       0.042200
     60 H12         -8.0870    -0.2960    -2.7280 ha         1 ZXY       0.156000
     61 H14         -9.8740     3.1480    -0.8480 ha         1 ZXY       0.171000
     62 HO17        -7.2520     3.2550     1.5350 ho         1 ZXY       0.484000
     63 HO18       -10.0280     0.7390    -3.3890 ho         1 ZXY       0.436000
     64 H20         -3.7200    -2.0930     1.4660 ha         1 ZXY       0.153000
     65 H23         -2.7110    -3.0260    -3.2760 ha         1 ZXY       0.156000
     66 H24         -4.3220    -1.2680    -2.7120 ha         1 ZXY       0.147000
     67 HO25        -1.0650    -4.9390    -0.8160 ho         1 ZXY       0.450000
     68 HO26        -2.2300    -3.8160     1.9060 ho         1 ZXY       0.440000
     69 H28          6.8230     0.5900     1.1190 ha         1 ZXY       0.128000
     70 H29          5.6830    -1.3490    -0.9480 ha         1 ZXY       0.149000
     71 H32          8.7220     0.7240     0.1200 ha         1 ZXY       0.134000
     72 H33         10.8560     0.6090    -1.0550 ha         1 ZXY       0.132000
     73 H36          7.0970    -2.1880    -2.5910 ha         1 ZXY       0.154000
     74 HO37        12.0360    -0.4010    -2.7960 ho         1 ZXY       0.438000
     75 HO38        10.1340    -2.4360    -4.3390 ho         1 ZXY       0.443000
@<TRIPOS>BOND
     1     1     2 1   
     2     1     5 1   
     3     1    34 1   
     4     2     3 1   
     5     2     6 1   
     6     2    46 1   
     7     3     4 1   
     8     3    47 1   
     9     3    48 1   
    10     4     5 1   
    11     4    49 1   
    12     4    50 1   
    13     5    51 1   
    14     5    52 1   
    15     6     7 2   
    16     6     8 1   
    17     8     9 1   
    18     8    53 1   
    19     9    10 1   
    20     9    54 1   
    21     9    55 1   
    22    10    11 1   
    23    10    56 1   
    24    10    57 1   
    25    11    12 1   
    26    11    58 1   
    27    11    59 1   
    28    12    13 1   
    29    13    14 2   
    30    13    18 1   
    31    14    15 1   
    32    14    26 1   
    33    15    16 1   
    34    16    17 ar  
    35    16    19 ar  
    36    17    18 1   
    37    17    22 ar  
    38    18    23 2   
    39    19    20 ar  
    40    19    60 1   
    41    20    21 ar  
    42    20    25 1   
    43    21    22 ar  
    44    21    61 1   
    45    22    24 1   
    46    24    62 1   
    47    25    63 1   
    48    26    27 ar  
    49    26    31 ar  
    50    27    28 ar  
    51    27    64 1   
    52    28    29 ar  
    53    28    33 1   
    54    29    30 ar  
    55    29    32 1   
    56    30    31 ar  
    57    30    65 1   
    58    31    66 1   
    59    32    67 1   
    60    33    68 1   
    61    34    35 1   
    62    34    37 2   
    63    35    36 2   
    64    35    69 1   
    65    36    38 1   
    66    36    70 1   
    67    38    39 ar  
    68    38    43 ar  
    69    39    40 ar  
    70    39    71 1   
    71    40    41 ar  
    72    40    72 1   
    73    41    42 ar  
    74    41    44 1   
    75    42    43 ar  
    76    42    45 1   
    77    43    73 1   
    78    44    74 1   
    79    45    75 1   
@<TRIPOS>SUBSTRUCTURE
     1 ZXY         1 TEMP              0 ****  ****    0 ROOT
