@<TRIPOS>MOLECULE
ZXY
   75    79     1     0     0
SMALL
No Charge or Current Charge


@<TRIPOS>ATOM
      1 N            4.6790     0.6050     1.8530 n          1 ZXY      -0.397800
      2 CA           3.2410     0.4990     2.2280 c5         1 ZXY       0.032700
      3 CB           3.1800     1.4670     3.4490 c5         1 ZXY      -0.083400
      4 CG           4.1710     2.5830     3.0340 c5         1 ZXY      -0.094400
      5 CD           5.3610     1.7640     2.4710 c5         1 ZXY       0.114000
      6 C            2.2510     0.9760     1.1150 c          1 ZXY       0.596100
      7 O            2.5150     1.5940     0.0900 o          1 ZXY      -0.594100
      8 N1           0.9730     0.5660     1.4330 ns         1 ZXY      -0.504900
      9 C2          -0.2050     0.8390     0.6100 c3         1 ZXY       0.107000
     10 C3          -1.5070     0.4890     1.3500 c3         1 ZXY      -0.100400
     11 C4          -2.7610     0.7770     0.5060 c3         1 ZXY       0.160600
     12 O5          -3.9100     0.4120     1.3000 os         1 ZXY      -0.337100
     13 C6          -5.1910     0.5200     0.7860 cc         1 ZXY      -0.092100
     14 C7          -5.4470    -0.0800    -0.4450 cd         1 ZXY       0.193900
     15 O6          -6.6490     0.1870    -1.0500 os         1 ZXY      -0.207200
     16 C9          -7.6920     0.8320    -0.4350 ca         1 ZXY       0.244100
     17 C10         -7.5310     1.4380     0.8160 ca         1 ZXY      -0.380600
     18 C11         -6.2000     1.3490     1.4810 c          1 ZXY       0.601900
     19 C12         -8.9220     0.8930    -1.1020 ca         1 ZXY      -0.300000
     20 C13        -10.0010     1.5590    -0.5140 ca         1 ZXY       0.244100
     21 C14         -9.8500     2.1680     0.7330 ca         1 ZXY      -0.245000
     22 C15         -8.6210     2.1110     1.3950 ca         1 ZXY       0.282100
     23 O16         -5.9870     1.9300     2.5410 o          1 ZXY      -0.580100
     24 O17         -8.4980     2.7150     2.6030 oh         1 ZXY      -0.534100
     25 O18        -11.1970     1.6210    -1.1540 oh         1 ZXY      -0.517100
     26 C19         -4.7290    -1.2060    -1.1000 ca         1 ZXY      -0.087800
     27 C20         -3.9140    -2.1010    -0.3630 ca         1 ZXY      -0.113000
     28 C21         -3.2570    -3.1680    -1.0030 ca         1 ZXY       0.031100
     29 C22         -3.4170    -3.3600    -2.3880 ca         1 ZXY       0.155100
     30 C23         -4.2370    -2.4990    -3.1270 ca         1 ZXY      -0.137000
     31 C24         -4.8950    -1.4340    -2.4870 ca         1 ZXY      -0.060000
     32 O25         -2.7780    -4.3970    -2.9990 oh         1 ZXY      -0.524100
     33 O26         -2.4680    -4.0300    -0.2820 oh         1 ZXY      -0.556100
     34 C27          5.2960    -0.3230     0.9880 c          1 ZXY       0.616300
     35 C28          6.7540    -0.1730     0.6830 ce         1 ZXY      -0.288200
     36 C29          7.4550    -1.0020    -0.1480 cf         1 ZXY      -0.074200
     37 O30          4.6470    -1.2410     0.5050 o          1 ZXY      -0.618100
     38 C31          8.8840    -0.9650    -0.5250 ca         1 ZXY      -0.069800
     39 C32          9.7620     0.0230    -0.0260 ca         1 ZXY      -0.086000
     40 C33         11.1180     0.0350    -0.4020 ca         1 ZXY      -0.168000
     41 C34         11.6110    -0.9410    -1.2810 ca         1 ZXY       0.057100
     42 C35         10.7430    -1.9300    -1.7840 ca         1 ZXY       0.117100
     43 C36          9.3900    -1.9410    -1.4090 ca         1 ZXY      -0.099000
     44 O37         12.9310    -0.9320    -1.6500 oh         1 ZXY      -0.554100
     45 O38         11.2280    -2.8770    -2.6400 oh         1 ZXY      -0.533100
     46 HA           2.9730    -0.5260     2.5170 h1         1 ZXY       0.073700
     47 HB3          2.1720     1.8490     3.6520 hc         1 ZXY       0.056700
     48 HB2          3.5220     0.9640     4.3610 hc         1 ZXY       0.056700
     49 HG3          3.7400     3.2320     2.2630 hc         1 ZXY       0.063200
     50 HG2          4.4660     3.2240     3.8720 hc         1 ZXY       0.063200
     51 HD3          6.0360     1.4320     3.2720 h1         1 ZXY       0.047200
     52 HD2          5.9380     2.3510     1.7440 h1         1 ZXY       0.047200
     53 HN1          0.8530     0.0510     2.2970 hn         1 ZXY       0.312500
     54 H21         -0.2110     1.9050     0.3410 h1         1 ZXY       0.054700
     55 H2          -0.1340     0.2510    -0.3150 h1         1 ZXY       0.054700
     56 H3          -1.4940    -0.5740     1.6210 hc         1 ZXY       0.054200
     57 H31         -1.5610     1.0650     2.2820 hc         1 ZXY       0.054200
     58 H4          -2.7970     1.8450     0.2540 h1         1 ZXY       0.042200
     59 H41         -2.7030     0.2110    -0.4300 h1         1 ZXY       0.042200
     60 H12         -9.0250     0.4200    -2.0750 ha         1 ZXY       0.138000
     61 H14        -10.6880     2.6880     1.1880 ha         1 ZXY       0.153000
     62 HO17        -7.5540     2.5760     2.8710 ho         1 ZXY       0.523000
     63 HO18       -11.1100     1.1430    -2.0050 ho         1 ZXY       0.475000
     64 H20         -3.8090    -1.9840     0.7120 ha         1 ZXY       0.135000
     65 H23         -4.3640    -2.6550    -4.1950 ha         1 ZXY       0.138000
     66 H24         -5.5210    -0.7730    -3.0830 ha         1 ZXY       0.129000
     67 HO25        -2.2790    -4.8570    -2.2870 ho         1 ZXY       0.489000
     68 HO26        -2.4820    -3.7670     0.6660 ho         1 ZXY       0.479000
     69 H28          7.2740     0.6460     1.1640 ha         1 ZXY       0.178000
     70 H29          6.8990    -1.8200    -0.6140 ha         1 ZXY       0.199000
     71 H32          9.4050     0.7900     0.6560 ha         1 ZXY       0.116000
     72 H33         11.7760     0.8050    -0.0050 ha         1 ZXY       0.114000
     73 H36          8.7360    -2.7130    -1.8080 ha         1 ZXY       0.136000
     74 HO37        13.3790    -0.1780    -1.2050 ho         1 ZXY       0.477000
     75 HO38        12.1840    -2.6720    -2.7560 ho         1 ZXY       0.482000
@<TRIPOS>BOND
     1     1     2 1   
     2     1     5 1   
     3     1    34 1   
     4     2     3 1   
     5     2     6 1   
     6     2    46 1   
     7     3     4 1   
     8     3    47 1   
     9     3    48 1   
    10     4     5 1   
    11     4    49 1   
    12     4    50 1   
    13     5    51 1   
    14     5    52 1   
    15     6     7 2   
    16     6     8 1   
    17     8     9 1   
    18     8    53 1   
    19     9    10 1   
    20     9    54 1   
    21     9    55 1   
    22    10    11 1   
    23    10    56 1   
    24    10    57 1   
    25    11    12 1   
    26    11    58 1   
    27    11    59 1   
    28    12    13 1   
    29    13    14 2   
    30    13    18 1   
    31    14    15 1   
    32    14    26 1   
    33    15    16 1   
    34    16    17 ar  
    35    16    19 ar  
    36    17    18 1   
    37    17    22 ar  
    38    18    23 2   
    39    19    20 ar  
    40    19    60 1   
    41    20    21 ar  
    42    20    25 1   
    43    21    22 ar  
    44    21    61 1   
    45    22    24 1   
    46    24    62 1   
    47    25    63 1   
    48    26    27 ar  
    49    26    31 ar  
    50    27    28 ar  
    51    27    64 1   
    52    28    29 ar  
    53    28    33 1   
    54    29    30 ar  
    55    29    32 1   
    56    30    31 ar  
    57    30    65 1   
    58    31    66 1   
    59    32    67 1   
    60    33    68 1   
    61    34    35 1   
    62    34    37 2   
    63    35    36 2   
    64    35    69 1   
    65    36    38 1   
    66    36    70 1   
    67    38    39 ar  
    68    38    43 ar  
    69    39    40 ar  
    70    39    71 1   
    71    40    41 ar  
    72    40    72 1   
    73    41    42 ar  
    74    41    44 1   
    75    42    43 ar  
    76    42    45 1   
    77    43    73 1   
    78    44    74 1   
    79    45    75 1   
@<TRIPOS>SUBSTRUCTURE
     1 ZXY         1 TEMP              0 ****  ****    0 ROOT
