@<TRIPOS>MOLECULE
ZXZ
   24    25     1     0     0
SMALL
No Charge or Current Charge


@<TRIPOS>ATOM
      1 C1          -2.1610     0.8650     0.0140 ca         1 ZXZ      -0.055000
      2 C2          -0.7680     0.6140     0.0130 ca         1 ZXZ      -0.128800
      3 C3          -0.3120    -0.7280     0.0130 ca         1 ZXZ       0.104600
      4 C4          -1.2590    -1.7820     0.0130 ca         1 ZXZ      -0.166000
      5 C5          -2.6350    -1.5140     0.0140 ca         1 ZXZ      -0.062000
      6 C6          -3.0850    -0.1890     0.0140 ca         1 ZXZ      -0.147000
      7 C7           0.1750     1.7440     0.0120 cc         1 ZXZ       0.023600
      8 C8           1.5110     1.4030     0.0110 cd         1 ZXZ      -0.300200
      9 C9           2.0570     0.0380     0.0100 c          1 ZXZ       0.565200
     10 N10          1.1030    -0.9990     0.0110 n          1 ZXZ      -0.280000
     11 C11         -0.2660     3.1870     0.0130 c3         1 ZXZ      -0.061900
     12 C12          1.5810    -2.4080     0.0120 c3         1 ZXZ       0.069300
     13 O13          3.2650    -0.1600     0.0090 o          1 ZXZ      -0.556000
     14 H1          -2.5460     1.8810     0.0140 ha         1 ZXZ       0.115000
     15 H4          -0.9490    -2.8220     0.0120 ha         1 ZXZ       0.121000
     16 H5          -3.3520    -2.3330     0.0140 ha         1 ZXZ       0.115000
     17 H6          -4.1520     0.0230     0.0150 ha         1 ZXZ       0.119000
     18 H8           2.2790     2.1670     0.0100 ha         1 ZXZ       0.207000
     19 H11         -0.8660     3.4130     0.9020 hc         1 ZXZ       0.051033
     20 H11A         0.5910     3.8710     0.0130 hc         1 ZXZ       0.051033
     21 H11B        -0.8670     3.4130    -0.8750 hc         1 ZXZ       0.051033
     22 H12          1.2080    -2.9220    -0.8830 h1         1 ZXZ       0.055033
     23 H12A         2.6750    -2.4740     0.0120 h1         1 ZXZ       0.055033
     24 H12B         1.2080    -2.9220     0.9070 h1         1 ZXZ       0.055033
@<TRIPOS>BOND
     1     1     2 ar  
     2     1     6 ar  
     3     1    14 1   
     4     2     3 ar  
     5     2     7 1   
     6     3     4 ar  
     7     3    10 1   
     8     4     5 ar  
     9     4    15 1   
    10     5     6 ar  
    11     5    16 1   
    12     6    17 1   
    13     7     8 2   
    14     7    11 1   
    15     8     9 1   
    16     8    18 1   
    17     9    10 1   
    18     9    13 2   
    19    10    12 1   
    20    11    19 1   
    21    11    20 1   
    22    11    21 1   
    23    12    22 1   
    24    12    23 1   
    25    12    24 1   
@<TRIPOS>SUBSTRUCTURE
     1 ZXZ         1 TEMP              0 ****  ****    0 ROOT
