@<TRIPOS>MOLECULE
ZXZ
   24    25     1     0     0
SMALL
bcc


@<TRIPOS>ATOM
      1 C1          -2.1420     0.8580     0.0130 ca         1 ZXZ      -0.073000
      2 C2          -0.7610     0.6210     0.0120 ca         1 ZXZ      -0.128800
      3 C3          -0.2930    -0.7080     0.0120 ca         1 ZXZ       0.104600
      4 C4          -1.2220    -1.7580     0.0140 ca         1 ZXZ      -0.184000
      5 C5          -2.5770    -1.4910     0.0150 ca         1 ZXZ      -0.080000
      6 C6          -3.0480    -0.1800     0.0140 ca         1 ZXZ      -0.165000
      7 C7           0.1990     1.6980     0.0120 cc         1 ZXZ       0.023600
      8 C8           1.5120     1.3910     0.0110 cd         1 ZXZ      -0.250200
      9 C9           2.0150     0.0340     0.0100 c          1 ZXZ       0.707700
     10 N10          1.0650    -0.9680     0.0110 n          1 ZXZ      -0.347000
     11 C11         -0.2630     3.1190     0.0140 c3         1 ZXZ      -0.061900
     12 C12          1.5160    -2.3500     0.0120 c3         1 ZXZ       0.069300
     13 O13          3.2160    -0.2180     0.0080 o          1 ZXZ      -0.631500
     14 H1          -2.5020     1.8780     0.0140 ha         1 ZXZ       0.133000
     15 H4          -0.8980    -2.7880     0.0130 ha         1 ZXZ       0.139000
     16 H5          -3.2750    -2.3170     0.0150 ha         1 ZXZ       0.133000
     17 H6          -4.1110     0.0210     0.0150 ha         1 ZXZ       0.137000
     18 H8           2.2630     2.1700     0.0110 ha         1 ZXZ       0.157000
     19 H11         -0.8770     3.3330     0.8900 hc         1 ZXZ       0.051033
     20 H11A         0.5820     3.8040     0.0160 hc         1 ZXZ       0.051033
     21 H11B        -0.8730     3.3350    -0.8650 hc         1 ZXZ       0.051033
     22 H12          1.1560    -2.8720    -0.8750 h1         1 ZXZ       0.055033
     23 H12A         2.5980    -2.3730     0.0110 h1         1 ZXZ       0.055033
     24 H12B         1.1570    -2.8710     0.8990 h1         1 ZXZ       0.055033
@<TRIPOS>BOND
     1     1     2 ar  
     2     1     6 ar  
     3     1    14 1   
     4     2     3 ar  
     5     2     7 1   
     6     3     4 ar  
     7     3    10 1   
     8     4     5 ar  
     9     4    15 1   
    10     5     6 ar  
    11     5    16 1   
    12     6    17 1   
    13     7     8 2   
    14     7    11 1   
    15     8     9 1   
    16     8    18 1   
    17     9    10 1   
    18     9    13 2   
    19    10    12 1   
    20    11    19 1   
    21    11    20 1   
    22    11    21 1   
    23    12    22 1   
    24    12    23 1   
    25    12    24 1   
@<TRIPOS>SUBSTRUCTURE
     1 ZXZ         1 TEMP              0 ****  ****    0 ROOT
