@<TRIPOS>MOLECULE
ZY0
   79    83     1     0     0
SMALL
abcg2


@<TRIPOS>ATOM
      1 C1           4.3130    -1.6100    -0.9350 ca         1 ZY0      -0.080000
      2 C2           3.1490    -0.8150    -0.8630 ca         1 ZY0      -0.068000
      3 C3           2.9830     0.1080     0.1370 ca         1 ZY0      -0.129600
      4 C4           4.0010     0.2900     1.0960 ca         1 ZY0      -0.057000
      5 C5           5.1330    -0.4740     1.0700 ca         1 ZY0      -0.016000
      6 C6           5.3150    -1.4560     0.0560 ca         1 ZY0       0.279000
      7 C7           1.7850     1.0040     0.2090 c          1 ZY0       0.623700
      8 N8           0.6440     0.4870    -0.2780 ns         1 ZY0      -0.496900
      9 O9           1.8740     2.1200     0.6970 o          1 ZY0      -0.596100
     10 C10         -0.5780     1.2360    -0.4600 c3         1 ZY0       0.084700
     11 C11         -0.7920     1.5710    -1.9470 c3         1 ZY0      -0.049100
     12 C12         -1.7420     0.4550     0.1680 c3         1 ZY0       0.146300
     13 O13         -1.8050    -0.8720    -0.3180 oh         1 ZY0      -0.657000
     14 C14          0.4140     2.2240    -2.5580 ca         1 ZY0      -0.082300
     15 C15         -3.0730     1.1770     0.0220 c3         1 ZY0       0.127800
     16 N16         -4.0890     0.5600     0.8510 n7         1 ZY0      -0.856400
     17 C17         -5.3770     1.2090     0.7170 c3         1 ZY0       0.204100
     18 C18          1.2930     1.5030    -3.3600 ca         1 ZY0      -0.101000
     19 C19          2.4230     2.1040    -3.8990 ca         1 ZY0      -0.105500
     20 C20          2.6920     3.4410    -3.6410 ca         1 ZY0      -0.105000
     21 C21          1.8210     4.1710    -2.8410 ca         1 ZY0      -0.105500
     22 C22          0.6940     3.5650    -2.3050 ca         1 ZY0      -0.101000
     23 C9           4.5220    -2.5800    -1.9560 ca         1 ZY0      -0.019300
     24 C24          8.2480    -0.0440     2.9890 c5         1 ZY0      -0.091400
     25 C25          7.1960    -0.1210     4.0900 c5         1 ZY0      -0.166400
     26 C26          5.9360    -0.5370     3.3640 c          1 ZY0       0.569000
     27 N27          6.1330    -0.3030     2.0420 n          1 ZY0      -0.238400
     28 C28          7.4340     0.2800     1.7370 c5         1 ZY0       0.111000
     29 C30          6.6030    -3.0870    -0.8630 ca         1 ZY0       0.359900
     30 N1           6.4410    -2.1990     0.0810 nb         1 ZY0      -0.658000
     31 C33          3.5450    -2.7830    -3.0770 c3         1 ZY0      -0.040100
     32 C34         -8.6180    -0.3230     1.9700 ca         1 ZY0      -0.199300
     33 C35         -8.3290    -0.5560     3.3060 ca         1 ZY0      -0.056000
     34 C36         -7.0730    -0.2200     3.7960 ca         1 ZY0      -0.121000
     35 C37         -6.1210     0.3390     2.9610 ca         1 ZY0      -0.055000
     36 C38         -6.4060     0.5790     1.6170 ca         1 ZY0      -0.097300
     37 C39         -7.6580     0.2370     1.1300 ca         1 ZY0      -0.061000
     38 F3         -10.8170    -1.1170     2.3070 f          1 ZY0      -0.114667
     39 F1         -10.5220     0.3630     0.7730 f          1 ZY0      -0.114667
     40 F2          -9.8420    -1.6510     0.4640 f          1 ZY0      -0.114667
     41 C13          5.6800    -3.3110    -1.9000 ca         1 ZY0      -0.172000
     42 H2           2.3970    -0.9220    -1.6330 ha         1 ZY0       0.116000
     43 H4           3.8830     1.0500     1.8570 ha         1 ZY0       0.149000
     44 H8           0.6280    -0.4780    -0.5680 hn         1 ZY0       0.324500
     45 H10         -0.4760     2.1690     0.0960 h1         1 ZY0       0.091700
     46 H111        -1.0380     0.6620    -2.5040 hc         1 ZY0       0.046700
     47 H112        -1.6530     2.2380    -2.0350 hc         1 ZY0       0.046700
     48 H12         -1.5260     0.3620     1.2370 h1         1 ZY0       0.104700
     49 H13         -2.1510    -0.8620    -1.2170 ho         1 ZY0       0.435000
     50 H151        -2.9460     2.2160     0.3410 h1         1 ZY0       0.036200
     51 H152        -3.3660     1.2140    -1.0400 h1         1 ZY0       0.036200
     52 H18          1.0850     0.4610    -3.5760 ha         1 ZY0       0.107000
     53 H22          0.0210     4.1440    -1.6840 ha         1 ZY0       0.107000
     54 H16         -4.1850    -0.4140     0.5860 hn         1 ZY0       0.423000
     55 H171        -5.2560     2.2600     1.0000 h1         1 ZY0       0.039700
     56 H172        -5.7530     1.2160    -0.3170 h1         1 ZY0       0.039700
     57 H19          3.0920     1.5290    -4.5270 ha         1 ZY0       0.112500
     58 H20          3.5690     3.9130    -4.0630 ha         1 ZY0       0.113000
     59 H21          2.0190     5.2150    -2.6360 ha         1 ZY0       0.112500
     60 H331         3.7210    -3.7640    -3.5200 hc         1 ZY0       0.051200
     61 H332         2.5220    -2.8030    -2.6950 hc         1 ZY0       0.051200
     62 HA           5.8920    -4.0660    -2.6460 ha         1 ZY0       0.123000
     63 H251         7.4370    -0.8160     4.8940 hc         1 ZY0       0.075700
     64 H252         7.0130     0.8570     4.5460 hc         1 ZY0       0.075700
     65 H30          7.5120    -3.6780    -0.8260 h4         1 ZY0       0.020100
     66 H321         4.6750    -1.7220    -4.5990 hc         1 ZY0       0.039367
     67 H322         2.9570    -1.8870    -4.9570 hc         1 ZY0       0.039367
     68 H323         3.5040    -0.7110    -3.7640 hc         1 ZY0       0.039367
     69 H35         -9.0610    -0.9920     3.9710 ha         1 ZY0       0.131000
     70 H39         -7.8800     0.4130     0.0830 ha         1 ZY0       0.123000
     71 H36         -6.8420    -0.3990     4.8370 ha         1 ZY0       0.123000
     72 H37         -5.1430     0.5940     3.3510 ha         1 ZY0       0.135000
     73 H241         9.0200     0.6990     3.1770 hc         1 ZY0       0.058200
     74 H242         8.7330    -1.0130     2.8700 hc         1 ZY0       0.058200
     75 H281         7.3340     1.3570     1.5780 h1         1 ZY0       0.053200
     76 H282         7.8540    -0.1630     0.8370 h1         1 ZY0       0.053200
     77 O1           4.9170    -0.9830     3.8560 o          1 ZY0      -0.538000
     78 C8          -9.9490    -0.6830     1.3890 c3         1 ZY0       0.356300
     79 C32          3.6780    -1.7120    -4.1600 c3         1 ZY0      -0.091100
@<TRIPOS>BOND
     1     1     2 ar  
     2     1     6 ar  
     3     1    23 ar  
     4     2     3 ar  
     5     2    42 1   
     6     3     4 ar  
     7     3     7 1   
     8     4     5 ar  
     9     4    43 1   
    10     5     6 ar  
    11     5    27 1   
    12     6    30 ar  
    13     7     8 1   
    14     7     9 2   
    15     8    10 1   
    16     8    44 1   
    17    10    11 1   
    18    10    12 1   
    19    10    45 1   
    20    11    14 1   
    21    11    46 1   
    22    11    47 1   
    23    12    13 1   
    24    12    15 1   
    25    12    48 1   
    26    13    49 1   
    27    14    18 ar  
    28    14    22 ar  
    29    15    16 1   
    30    15    50 1   
    31    15    51 1   
    32    16    17 1   
    33    16    54 1   
    34    17    36 1   
    35    17    55 1   
    36    17    56 1   
    37    18    19 ar  
    38    18    52 1   
    39    19    20 ar  
    40    19    57 1   
    41    20    21 ar  
    42    20    58 1   
    43    21    22 ar  
    44    21    59 1   
    45    22    53 1   
    46    23    31 1   
    47    23    41 ar  
    48    24    25 1   
    49    24    28 1   
    50    24    73 1   
    51    24    74 1   
    52    25    26 1   
    53    25    63 1   
    54    25    64 1   
    55    26    27 1   
    56    26    77 2   
    57    27    28 1   
    58    28    75 1   
    59    28    76 1   
    60    29    30 ar  
    61    29    41 ar  
    62    29    65 1   
    63    31    60 1   
    64    31    61 1   
    65    31    79 1   
    66    32    33 ar  
    67    32    37 ar  
    68    32    78 1   
    69    33    34 ar  
    70    33    69 1   
    71    34    35 ar  
    72    34    71 1   
    73    35    36 ar  
    74    35    72 1   
    75    36    37 ar  
    76    37    70 1   
    77    38    78 1   
    78    39    78 1   
    79    40    78 1   
    80    41    62 1   
    81    66    79 1   
    82    67    79 1   
    83    68    79 1   
@<TRIPOS>SUBSTRUCTURE
     1 ZY0         1 TEMP              0 ****  ****    0 ROOT
