@<TRIPOS>MOLECULE
ZY0
   79    83     1     0     0
SMALL
No Charge or Current Charge


@<TRIPOS>ATOM
      1 C1           4.4800    -1.2700    -0.9930 ca         1 ZY0      -0.080000
      2 C2           3.2700    -0.5400    -0.9510 ca         1 ZY0      -0.068000
      3 C3           2.8710     0.1400     0.2190 ca         1 ZY0      -0.129600
      4 C4           3.7310     0.1200     1.3310 ca         1 ZY0      -0.057000
      5 C5           4.9930    -0.5040     1.2850 ca         1 ZY0      -0.016000
      6 C6           5.3430    -1.2840     0.1430 ca         1 ZY0       0.279000
      7 C7           1.5560     0.8890     0.3120 c          1 ZY0       0.623700
      8 N8           0.7000     0.7750    -0.7610 ns         1 ZY0      -0.496900
      9 O9           1.2650     1.5770     1.2820 o          1 ZY0      -0.596100
     10 C10         -0.5900     1.4670    -0.8920 c3         1 ZY0       0.084700
     11 C11         -0.9790     1.5830    -2.3930 c3         1 ZY0      -0.049100
     12 C12         -1.6870     0.8250     0.0190 c3         1 ZY0       0.146300
     13 O13         -1.9130    -0.5610    -0.3380 oh         1 ZY0      -0.657000
     14 C14          0.1650     2.0830    -3.2760 ca         1 ZY0      -0.082300
     15 C15         -3.0340     1.6070     0.0110 c3         1 ZY0       0.127800
     16 N16         -3.9880     1.0410     0.9890 n7         1 ZY0      -0.856400
     17 C17         -5.3470     1.6060     0.9470 c3         1 ZY0       0.204100
     18 C18          0.6680     1.2740    -4.3150 ca         1 ZY0      -0.101000
     19 C19          1.7230     1.7330    -5.1230 ca         1 ZY0      -0.105500
     20 C20          2.2850     3.0000    -4.8960 ca         1 ZY0      -0.105000
     21 C21          1.7870     3.8110    -3.8630 ca         1 ZY0      -0.105500
     22 C22          0.7280     3.3560    -3.0580 ca         1 ZY0      -0.101000
     23 C9           4.8450    -2.0120    -2.1510 ca         1 ZY0      -0.019300
     24 C24          7.5890    -1.1690     3.8650 c5         1 ZY0      -0.091400
     25 C25          6.3150    -1.0100     4.7340 c5         1 ZY0      -0.166400
     26 C26          5.1960    -1.1230     3.7020 c          1 ZY0       0.569000
     27 N27          5.7310    -0.5740     2.5280 n          1 ZY0      -0.238400
     28 C28          7.1910    -0.3130     2.6230 c5         1 ZY0       0.111000
     29 C30          6.8140    -2.7380    -0.9470 ca         1 ZY0       0.359900
     30 N1           6.4790    -2.0280     0.1470 nb         1 ZY0      -0.658000
     31 C33          4.0110    -2.0580    -3.4340 c3         1 ZY0      -0.040100
     32 C34         -7.9860    -0.7290     2.4920 ca         1 ZY0      -0.199300
     33 C35         -7.8950    -0.3670     3.8540 ca         1 ZY0      -0.056000
     34 C36         -6.9930     0.6280     4.2650 ca         1 ZY0      -0.121000
     35 C37         -6.1690     1.2680     3.3240 ca         1 ZY0      -0.055000
     36 C38         -6.2410     0.9130     1.9650 ca         1 ZY0      -0.097300
     37 C39         -7.1460    -0.0870     1.5550 ca         1 ZY0      -0.061000
     38 F3         -10.0370    -1.9270     2.8490 f          1 ZY0      -0.114667
     39 F1          -9.4380    -1.5980     0.7910 f          1 ZY0      -0.114667
     40 F2          -8.3620    -3.0350     2.0180 f          1 ZY0      -0.114667
     41 C13          6.0380    -2.7490    -2.1080 ca         1 ZY0      -0.172000
     42 H2           2.6250    -0.5190    -1.8210 ha         1 ZY0       0.116000
     43 H4           3.4320     0.6290     2.2450 ha         1 ZY0       0.149000
     44 H8           1.0010     0.1840    -1.5240 hn         1 ZY0       0.324500
     45 H10         -0.4380     2.4920    -0.5250 h1         1 ZY0       0.091700
     46 H111        -1.3250     0.6080    -2.7550 hc         1 ZY0       0.046700
     47 H112        -1.8310     2.2650    -2.4950 hc         1 ZY0       0.046700
     48 H12         -1.3090     0.8740     1.0500 h1         1 ZY0       0.104700
     49 H13         -2.2510    -0.5720    -1.2580 ho         1 ZY0       0.435000
     50 H151        -2.8360     2.6630     0.2440 h1         1 ZY0       0.036200
     51 H152        -3.4640     1.5680    -0.9990 h1         1 ZY0       0.036200
     52 H18          0.2440     0.2900    -4.5000 ha         1 ZY0       0.107000
     53 H22          0.3480     3.9940    -2.2640 ha         1 ZY0       0.107000
     54 H16         -4.0570     0.0320     0.8060 hn         1 ZY0       0.423000
     55 H171        -5.3220     2.6830     1.1660 h1         1 ZY0       0.039700
     56 H172        -5.7810     1.4880    -0.0560 h1         1 ZY0       0.039700
     57 H19          2.1040     1.1060    -5.9260 ha         1 ZY0       0.112500
     58 H20          3.1020     3.3540    -5.5210 ha         1 ZY0       0.113000
     59 H21          2.2190     4.7940    -3.6880 ha         1 ZY0       0.112500
     60 H331         4.2930    -2.9320    -4.0340 hc         1 ZY0       0.051200
     61 H332         2.9470    -2.2000    -3.2100 hc         1 ZY0       0.051200
     62 HA           6.3660    -3.3350    -2.9610 ha         1 ZY0       0.123000
     63 H251         6.1990    -1.7380     5.5430 hc         1 ZY0       0.075700
     64 H252         6.3040     0.0070     5.1400 hc         1 ZY0       0.075700
     65 H30          7.7380    -3.3110    -0.8910 h4         1 ZY0       0.020100
     66 H321         5.2500    -0.6880    -4.5970 hc         1 ZY0       0.039367
     67 H322         3.5960    -0.8760    -5.2190 hc         1 ZY0       0.039367
     68 H323         3.8950     0.1050    -3.7670 hc         1 ZY0       0.039367
     69 H35         -8.5200    -0.8550     4.6000 ha         1 ZY0       0.131000
     70 H39         -7.1920    -0.3640     0.5040 ha         1 ZY0       0.123000
     71 H36         -6.9300     0.9020     5.3160 ha         1 ZY0       0.123000
     72 H37         -5.4700     2.0350     3.6500 ha         1 ZY0       0.135000
     73 H241         8.4990    -0.8080     4.3580 hc         1 ZY0       0.058200
     74 H242         7.7510    -2.2170     3.5860 hc         1 ZY0       0.058200
     75 H281         7.3670     0.7550     2.8070 h1         1 ZY0       0.053200
     76 H282         7.7590    -0.5950     1.7300 h1         1 ZY0       0.053200
     77 O1           4.1480    -1.7520     3.7720 o          1 ZY0      -0.538000
     78 C8          -8.9600    -1.8230     2.0370 c3         1 ZY0       0.356300
     79 C32          4.1990    -0.8000    -4.3060 c3         1 ZY0      -0.091100
@<TRIPOS>BOND
     1     1     2 ar  
     2     1     6 ar  
     3     1    23 ar  
     4     2     3 ar  
     5     2    42 1   
     6     3     4 ar  
     7     3     7 1   
     8     4     5 ar  
     9     4    43 1   
    10     5     6 ar  
    11     5    27 1   
    12     6    30 ar  
    13     7     8 1   
    14     7     9 2   
    15     8    10 1   
    16     8    44 1   
    17    10    11 1   
    18    10    12 1   
    19    10    45 1   
    20    11    14 1   
    21    11    46 1   
    22    11    47 1   
    23    12    13 1   
    24    12    15 1   
    25    12    48 1   
    26    13    49 1   
    27    14    18 ar  
    28    14    22 ar  
    29    15    16 1   
    30    15    50 1   
    31    15    51 1   
    32    16    17 1   
    33    16    54 1   
    34    17    36 1   
    35    17    55 1   
    36    17    56 1   
    37    18    19 ar  
    38    18    52 1   
    39    19    20 ar  
    40    19    57 1   
    41    20    21 ar  
    42    20    58 1   
    43    21    22 ar  
    44    21    59 1   
    45    22    53 1   
    46    23    31 1   
    47    23    41 ar  
    48    24    25 1   
    49    24    28 1   
    50    24    73 1   
    51    24    74 1   
    52    25    26 1   
    53    25    63 1   
    54    25    64 1   
    55    26    27 1   
    56    26    77 2   
    57    27    28 1   
    58    28    75 1   
    59    28    76 1   
    60    29    30 ar  
    61    29    41 ar  
    62    29    65 1   
    63    31    60 1   
    64    31    61 1   
    65    31    79 1   
    66    32    33 ar  
    67    32    37 ar  
    68    32    78 1   
    69    33    34 ar  
    70    33    69 1   
    71    34    35 ar  
    72    34    71 1   
    73    35    36 ar  
    74    35    72 1   
    75    36    37 ar  
    76    37    70 1   
    77    38    78 1   
    78    39    78 1   
    79    40    78 1   
    80    41    62 1   
    81    66    79 1   
    82    67    79 1   
    83    68    79 1   
@<TRIPOS>SUBSTRUCTURE
     1 ZY0         1 TEMP              0 ****  ****    0 ROOT
