@<TRIPOS>MOLECULE
ZY1
   80    84     1     0     0
SMALL
No Charge or Current Charge


@<TRIPOS>ATOM
      1 C69          4.4240    -1.3010     3.7940 c3         1 ZY1      -0.088100
      2 C68          4.3570     0.2320     3.6670 c3         1 ZY1      -0.004200
      3 C58          4.6080     0.7110     2.2620 cc         1 ZY1      -0.119400
      4 C57          5.7590     1.3170     1.7720 cd         1 ZY1      -0.149100
      5 N56          5.5970     1.5810     0.3950 na         1 ZY1      -0.099700
      6 C62          6.4960     2.3400    -0.4900 c3         1 ZY1       0.109600
      7 C61          5.8270     3.6100    -1.0430 c3         1 ZY1      -0.360400
      8 S60          4.7830     3.2970    -2.4640 s6         1 ZY1       1.204100
      9 O80          5.5980     3.4520    -3.6730 o          1 ZY1      -0.516500
     10 O79          3.5430     4.0640    -2.3120 o          1 ZY1      -0.516500
     11 N59          4.3420     1.6280    -2.3730 nh         1 ZY1      -0.768300
     12 C75          4.3120     0.8740    -3.6400 c3         1 ZY1       0.204100
     13 C10          3.6980     1.1400    -1.2170 ca         1 ZY1       0.226000
     14 C9           2.3960     0.5920    -1.2940 ca         1 ZY1      -0.013000
     15 C8           1.7340     0.0710    -0.1490 ca         1 ZY1      -0.167600
     16 C13          2.4120     0.0800     1.0960 ca         1 ZY1      -0.024000
     17 C12          3.7060     0.6140     1.1470 ca         1 ZY1      -0.091800
     18 C11          4.3260     1.1390     0.0450 ca         1 ZY1      -0.044200
     19 C1           0.3450    -0.4990    -0.2950 c          1 ZY1       0.626700
     20 O7          -0.1600    -0.7140    -1.3890 o          1 ZY1      -0.606100
     21 N2          -0.3190    -0.7940     0.8740 ns         1 ZY1      -0.495900
     22 C3          -1.6320    -1.4510     0.9650 c3         1 ZY1       0.083700
     23 C5          -1.8180    -2.0580     2.3860 c3         1 ZY1      -0.050100
     24 C14         -0.5770    -2.7900     2.8950 ca         1 ZY1      -0.080300
     25 C15          0.1160    -2.3130     4.0260 ca         1 ZY1      -0.101000
     26 C16          1.2670    -2.9770     4.4850 ca         1 ZY1      -0.105500
     27 C17          1.7340    -4.1200     3.8150 ca         1 ZY1      -0.106000
     28 C18          1.0470    -4.6010     2.6880 ca         1 ZY1      -0.105500
     29 C19         -0.1050    -3.9390     2.2300 ca         1 ZY1      -0.101000
     30 O47         -8.8790     1.2060    -3.8540 os         1 ZY1      -0.340100
     31 C4          -2.7950    -0.5120     0.5030 c3         1 ZY1       0.147300
     32 C48         -9.7830     2.1190    -4.5010 c3         1 ZY1       0.148900
     33 O21         -2.8510     0.6850     1.3160 oh         1 ZY1      -0.656000
     34 C6          -4.1850    -1.2150     0.4870 c3         1 ZY1       0.128800
     35 N20         -5.2260    -0.3310    -0.0800 n7         1 ZY1      -0.856400
     36 C37         -6.6060    -0.8400     0.0110 c3         1 ZY1       0.205100
     37 C39         -7.5920     0.1730    -0.5570 ca         1 ZY1      -0.058300
     38 C42         -7.8060     0.2520    -1.9470 ca         1 ZY1      -0.122000
     39 C43         -8.7140     1.1800    -2.4830 ca         1 ZY1       0.137100
     40 C44         -9.4200     2.0440    -1.6170 ca         1 ZY1      -0.196000
     41 C45         -9.2090     1.9720    -0.2290 ca         1 ZY1      -0.076000
     42 C46         -8.2980     1.0400     0.2980 ca         1 ZY1      -0.148000
     43 H2           0.1610    -0.5760     1.7350 hn         1 ZY1       0.323500
     44 H3          -1.6090    -2.2950     0.2620 h1         1 ZY1       0.092700
     45 H51C        -2.0880    -1.2610     3.0890 hc         1 ZY1       0.046700
     46 H52C        -2.6660    -2.7520     2.3740 hc         1 ZY1       0.046700
     47 H61C        -4.1120    -2.1390    -0.1030 h1         1 ZY1       0.034200
     48 H62C        -4.4530    -1.5000     1.5140 h1         1 ZY1       0.034200
     49 H21         -3.0180     0.4020     2.2400 ho         1 ZY1       0.433000
     50 H20         -5.1840     0.5610     0.4280 hn         1 ZY1       0.422000
     51 H9           1.8900     0.5850    -2.2560 ha         1 ZY1       0.147000
     52 H13          1.9680    -0.3300     1.9980 ha         1 ZY1       0.118000
     53 H15         -0.2330    -1.4270     4.5510 ha         1 ZY1       0.107500
     54 H19         -0.6300    -4.3190     1.3570 ha         1 ZY1       0.107500
     55 H16          1.7970    -2.6050     5.3590 ha         1 ZY1       0.112000
     56 H17          2.6260    -4.6320     4.1690 ha         1 ZY1       0.112000
     57 H18          1.4080    -5.4860     2.1690 ha         1 ZY1       0.112000
     58 H371        -6.7030    -1.7840    -0.5430 h1         1 ZY1       0.036700
     59 H372        -6.8690    -1.0490     1.0580 h1         1 ZY1       0.036700
     60 H42         -7.2620    -0.4090    -2.6170 ha         1 ZY1       0.145000
     61 H46         -8.1420     0.9930     1.3740 ha         1 ZY1       0.110000
     62 H44        -10.1290     2.7730    -1.9980 ha         1 ZY1       0.116000
     63 H45         -9.7510     2.6380     0.4390 ha         1 ZY1       0.110000
     64 H481       -10.8130     1.9560    -4.1580 h1         1 ZY1       0.039367
     65 H482        -9.5030     3.1590    -4.2930 h1         1 ZY1       0.039367
     66 H483        -9.7590     1.9710    -5.5870 h1         1 ZY1       0.039367
     67 H57          6.6710     1.5780     2.3000 h4         1 ZY1       0.215000
     68 H621         7.3750     2.6320     0.0980 h1         1 ZY1       0.062200
     69 H622         6.8460     1.6910    -1.3040 h1         1 ZY1       0.062200
     70 H681         3.3720     0.5770     4.0050 hc         1 ZY1       0.045700
     71 H682         5.0920     0.6780     4.3490 hc         1 ZY1       0.045700
     72 H751         3.5950     1.3190    -4.3430 h1         1 ZY1       0.051700
     73 H752         5.3060     0.8610    -4.1070 h1         1 ZY1       0.051700
     74 H753         4.0200    -0.1700    -3.4630 h1         1 ZY1       0.051700
     75 H611         5.1910     4.0730    -0.2820 h1         1 ZY1       0.114700
     76 H612         6.5750     4.3330    -1.3820 h1         1 ZY1       0.114700
     77 H691         3.6800    -1.7790     3.1460 hc         1 ZY1       0.034033
     78 H692         5.4170    -1.6670     3.5060 hc         1 ZY1       0.034033
     79 H693         4.2300    -1.6090     4.8280 hc         1 ZY1       0.034033
     80 H4          -2.5820    -0.2300    -0.5380 h1         1 ZY1       0.105700
@<TRIPOS>BOND
     1     1     2 1   
     2     1    77 1   
     3     1    78 1   
     4     1    79 1   
     5     2     3 1   
     6     2    70 1   
     7     2    71 1   
     8     3     4 2   
     9     3    17 1   
    10     4     5 1   
    11     4    67 1   
    12     5     6 1   
    13     5    18 1   
    14     6     7 1   
    15     6    68 1   
    16     6    69 1   
    17     7     8 1   
    18     7    75 1   
    19     7    76 1   
    20     8     9 2   
    21     8    10 2   
    22     8    11 1   
    23    11    12 1   
    24    11    13 1   
    25    12    72 1   
    26    12    73 1   
    27    12    74 1   
    28    13    14 ar  
    29    13    18 ar  
    30    14    15 ar  
    31    14    51 1   
    32    15    16 ar  
    33    15    19 1   
    34    16    17 ar  
    35    16    52 1   
    36    17    18 ar  
    37    19    20 2   
    38    19    21 1   
    39    21    22 1   
    40    21    43 1   
    41    22    23 1   
    42    22    31 1   
    43    22    44 1   
    44    23    24 1   
    45    23    45 1   
    46    23    46 1   
    47    24    25 ar  
    48    24    29 ar  
    49    25    26 ar  
    50    25    53 1   
    51    26    27 ar  
    52    26    55 1   
    53    27    28 ar  
    54    27    56 1   
    55    28    29 ar  
    56    28    57 1   
    57    29    54 1   
    58    30    32 1   
    59    30    39 1   
    60    31    33 1   
    61    31    34 1   
    62    31    80 1   
    63    32    64 1   
    64    32    65 1   
    65    32    66 1   
    66    33    49 1   
    67    34    35 1   
    68    34    47 1   
    69    34    48 1   
    70    35    36 1   
    71    35    50 1   
    72    36    37 1   
    73    36    58 1   
    74    36    59 1   
    75    37    38 ar  
    76    37    42 ar  
    77    38    39 ar  
    78    38    60 1   
    79    39    40 ar  
    80    40    41 ar  
    81    40    62 1   
    82    41    42 ar  
    83    41    63 1   
    84    42    61 1   
@<TRIPOS>SUBSTRUCTURE
     1 ZY1         1 TEMP              0 ****  ****    0 ROOT
