@<TRIPOS>MOLECULE
ZY1
   80    84     1     0     0
SMALL
bcc


@<TRIPOS>ATOM
      1 C69          3.7250     0.5010     4.4460 c3         1 ZY1      -0.088100
      2 C68          3.5620     1.8270     3.7030 c3         1 ZY1      -0.004200
      3 C58          4.0220     1.7530     2.2850 cc         1 ZY1      -0.119400
      4 C57          5.1670     2.2640     1.7530 cd         1 ZY1      -0.099100
      5 N56          5.2650     1.9590     0.4130 na         1 ZY1      -0.070400
      6 C62          6.4380     2.1650    -0.4030 c3         1 ZY1       0.080300
      7 C61          6.2250     3.0400    -1.6280 c3         1 ZY1      -0.249600
      8 S60          4.9120     2.4630    -2.7340 s6         1 ZY1       1.234900
      9 O80          5.4260     2.4740    -4.0930 o          1 ZY1      -0.587300
     10 O79          3.7070     3.2100    -2.4160 o          1 ZY1      -0.587300
     11 N59          4.5970     0.8880    -2.3310 nh         1 ZY1      -0.629900
     12 C75          5.4660    -0.1890    -2.7960 c3         1 ZY1       0.204100
     13 C10          3.8040     0.6870    -1.1700 ca         1 ZY1       0.087600
     14 C9           2.6280    -0.0280    -1.2360 ca         1 ZY1      -0.031000
     15 C8           1.8050    -0.1940    -0.1080 ca         1 ZY1      -0.167600
     16 C13          2.1670     0.3620     1.1100 ca         1 ZY1      -0.042000
     17 C12          3.3600     1.0760     1.2080 ca         1 ZY1      -0.091800
     18 C11          4.1710     1.2250     0.0650 ca         1 ZY1      -0.044200
     19 C1           0.5590    -1.0000    -0.2740 c          1 ZY1       0.693700
     20 O7           0.4910    -1.8850    -1.1170 o          1 ZY1      -0.606100
     21 N2          -0.4620    -0.6680     0.5360 ns         1 ZY1      -0.562900
     22 C3          -1.6870    -1.4230     0.6580 c3         1 ZY1       0.083700
     23 C5          -1.7200    -2.1860     1.9950 c3         1 ZY1      -0.050100
     24 C14         -0.4790    -3.0060     2.2020 ca         1 ZY1      -0.080300
     25 C15          0.5650    -2.5310     2.9890 ca         1 ZY1      -0.119000
     26 C16          1.7360    -3.2620     3.1420 ca         1 ZY1      -0.123500
     27 C17          1.8750    -4.4890     2.5090 ca         1 ZY1      -0.124000
     28 C18          0.8370    -4.9780     1.7260 ca         1 ZY1      -0.123500
     29 C19         -0.3280    -4.2400     1.5730 ca         1 ZY1      -0.119000
     30 O47         -8.2520     2.4250    -2.8540 os         1 ZY1      -0.316900
     31 C4          -2.8830    -0.4820     0.4630 c3         1 ZY1       0.124100
     32 C48         -9.2620     3.2820    -3.3450 c3         1 ZY1       0.125700
     33 O21         -2.8420     0.6100     1.3630 oh         1 ZY1      -0.593800
     34 C6          -4.2170    -1.2110     0.5160 c3         1 ZY1       0.128800
     35 N20         -5.2940    -0.3410     0.0900 n7         1 ZY1      -0.801200
     36 C37         -6.5880    -0.9880     0.1500 c3         1 ZY1       0.205100
     37 C39         -7.7000    -0.0810    -0.3100 ca         1 ZY1      -0.058300
     38 C42         -7.5070     0.7950    -1.3690 ca         1 ZY1      -0.140000
     39 C43         -8.5450     1.6120    -1.8180 ca         1 ZY1       0.137100
     40 C44         -9.7920     1.5520    -1.2000 ca         1 ZY1      -0.214000
     41 C45         -9.9780     0.6740    -0.1380 ca         1 ZY1      -0.094000
     42 C46         -8.9480    -0.1350     0.3110 ca         1 ZY1      -0.166000
     43 H2          -0.3620     0.1280     1.1470 hn         1 ZY1       0.323500
     44 H3          -1.7030    -2.1500    -0.1570 h1         1 ZY1       0.092700
     45 H51C        -1.8270    -1.4800     2.8240 hc         1 ZY1       0.046700
     46 H52C        -2.6020    -2.8300     2.0100 hc         1 ZY1       0.046700
     47 H61C        -4.1750    -2.0710    -0.1600 h1         1 ZY1       0.034200
     48 H62C        -4.3850    -1.6200     1.5270 h1         1 ZY1       0.034200
     49 H21         -3.0920     0.3040     2.2420 ho         1 ZY1       0.394000
     50 H20         -5.3110     0.4790     0.6850 hn         1 ZY1       0.366800
     51 H9           2.3240    -0.4470    -2.1870 ha         1 ZY1       0.165000
     52 H13          1.5540     0.2290     1.9930 ha         1 ZY1       0.136000
     53 H15          0.4580    -1.5760     3.4920 ha         1 ZY1       0.125500
     54 H19         -1.1310    -4.6310     0.9590 ha         1 ZY1       0.125500
     55 H16          2.5370    -2.8740     3.7590 ha         1 ZY1       0.130000
     56 H17          2.7840    -5.0650     2.6280 ha         1 ZY1       0.130000
     57 H18          0.9350    -5.9370     1.2340 ha         1 ZY1       0.130000
     58 H371        -6.5570    -1.8660    -0.5030 h1         1 ZY1       0.036700
     59 H372        -6.8320    -1.3690     1.1540 h1         1 ZY1       0.036700
     60 H42         -6.5390     0.8530    -1.8520 ha         1 ZY1       0.163000
     61 H46         -9.1060    -0.8050     1.1470 ha         1 ZY1       0.128000
     62 H44        -10.6160     2.1750    -1.5220 ha         1 ZY1       0.134000
     63 H45        -10.9460     0.6320     0.3450 ha         1 ZY1       0.128000
     64 H481       -10.1260     2.7250    -3.7180 h1         1 ZY1       0.039367
     65 H482        -9.6040     3.9900    -2.5850 h1         1 ZY1       0.039367
     66 H483        -8.8230     3.8380    -4.1690 h1         1 ZY1       0.039367
     67 H57          5.9490     2.8330     2.2340 h4         1 ZY1       0.165000
     68 H621         7.1870     2.6580     0.2130 h1         1 ZY1       0.062200
     69 H622         6.8650     1.2030    -0.6910 h1         1 ZY1       0.062200
     70 H681         2.5110     2.1310     3.7360 hc         1 ZY1       0.045700
     71 H682         4.1200     2.6060     4.2250 hc         1 ZY1       0.045700
     72 H751         5.8410     0.0350    -3.7900 h1         1 ZY1       0.051700
     73 H752         6.3100    -0.3670    -2.1260 h1         1 ZY1       0.051700
     74 H753         4.8780    -1.1020    -2.8590 h1         1 ZY1       0.051700
     75 H611         5.9590     4.0610    -1.3540 h1         1 ZY1       0.114700
     76 H612         7.1470     3.0610    -2.2070 h1         1 ZY1       0.114700
     77 H691         3.1700    -0.3010     3.9580 hc         1 ZY1       0.034033
     78 H692         4.7730     0.2010     4.4810 hc         1 ZY1       0.034033
     79 H693         3.3610     0.5810     5.4710 hc         1 ZY1       0.034033
     80 H4          -2.7850    -0.0400    -0.5330 h1         1 ZY1       0.105700
@<TRIPOS>BOND
     1     1     2 1   
     2     1    77 1   
     3     1    78 1   
     4     1    79 1   
     5     2     3 1   
     6     2    70 1   
     7     2    71 1   
     8     3     4 2   
     9     3    17 1   
    10     4     5 1   
    11     4    67 1   
    12     5     6 1   
    13     5    18 1   
    14     6     7 1   
    15     6    68 1   
    16     6    69 1   
    17     7     8 1   
    18     7    75 1   
    19     7    76 1   
    20     8     9 2   
    21     8    10 2   
    22     8    11 1   
    23    11    12 1   
    24    11    13 1   
    25    12    72 1   
    26    12    73 1   
    27    12    74 1   
    28    13    14 ar  
    29    13    18 ar  
    30    14    15 ar  
    31    14    51 1   
    32    15    16 ar  
    33    15    19 1   
    34    16    17 ar  
    35    16    52 1   
    36    17    18 ar  
    37    19    20 2   
    38    19    21 1   
    39    21    22 1   
    40    21    43 1   
    41    22    23 1   
    42    22    31 1   
    43    22    44 1   
    44    23    24 1   
    45    23    45 1   
    46    23    46 1   
    47    24    25 ar  
    48    24    29 ar  
    49    25    26 ar  
    50    25    53 1   
    51    26    27 ar  
    52    26    55 1   
    53    27    28 ar  
    54    27    56 1   
    55    28    29 ar  
    56    28    57 1   
    57    29    54 1   
    58    30    32 1   
    59    30    39 1   
    60    31    33 1   
    61    31    34 1   
    62    31    80 1   
    63    32    64 1   
    64    32    65 1   
    65    32    66 1   
    66    33    49 1   
    67    34    35 1   
    68    34    47 1   
    69    34    48 1   
    70    35    36 1   
    71    35    50 1   
    72    36    37 1   
    73    36    58 1   
    74    36    59 1   
    75    37    38 ar  
    76    37    42 ar  
    77    38    39 ar  
    78    38    60 1   
    79    39    40 ar  
    80    40    41 ar  
    81    40    62 1   
    82    41    42 ar  
    83    41    63 1   
    84    42    61 1   
@<TRIPOS>SUBSTRUCTURE
     1 ZY1         1 TEMP              0 ****  ****    0 ROOT
