@<TRIPOS>MOLECULE
ZY2
   84    88     1     0     0
SMALL
No Charge or Current Charge


@<TRIPOS>ATOM
      1 C1          30.6690     1.3070    34.4090 c          1 ZY2       0.621700
      2 N2          29.5570     1.2000    33.6040 ns         1 ZY2      -0.503900
      3 C3          29.2650     2.0510    32.4400 c3         1 ZY2       0.087700
      4 C4          28.2730     3.2100    32.7780 c3         1 ZY2       0.156300
      5 C5          28.7830     1.1550    31.2660 c3         1 ZY2      -0.048100
      6 C6          28.7510     4.0990    33.9660 c3         1 ZY2       0.157800
      7 O7          31.4280     2.2620    34.3300 o          1 ZY2      -0.605100
      8 C8          30.9070     0.1640    35.3710 ca         1 ZY2      -0.153600
      9 C9          31.8570     0.3070    36.3960 ca         1 ZY2      -0.041000
     10 C10         32.1250    -0.7180    37.3250 ca         1 ZY2       0.223000
     11 C11         31.4350    -1.9800    37.2080 ca         1 ZY2       0.310000
     12 C12         30.4530    -2.1160    36.1620 ca         1 ZY2       0.247000
     13 C13         30.2060    -1.0530    35.2750 ca         1 ZY2      -0.119000
     14 C14         29.6070    -0.1220    31.1010 ca         1 ZY2      -0.078300
     15 C15         29.0060    -1.3860    31.2750 ca         1 ZY2      -0.106500
     16 C16         29.7690    -2.5590    31.1470 ca         1 ZY2      -0.107000
     17 C17         31.1390    -2.4780    30.8490 ca         1 ZY2      -0.106000
     18 C18         31.7450    -1.2220    30.6740 ca         1 ZY2      -0.107000
     19 C19         30.9810    -0.0490    30.7980 ca         1 ZY2      -0.106500
     20 N20         27.8160     5.2270    34.2100 n7         1 ZY2      -0.860400
     21 O21         28.0600     4.0390    31.6130 oh         1 ZY2      -0.670000
     22 C37         28.2490     6.2200    35.2130 c3         1 ZY2       0.202100
     23 C39         29.4990     6.9670    34.7540 ca         1 ZY2      -0.088300
     24 C42         29.4040     7.9760    33.7740 ca         1 ZY2      -0.188000
     25 C43         30.5600     8.6650    33.3440 ca         1 ZY2       0.135100
     26 C44         31.8070     8.3390    33.9010 ca         1 ZY2      -0.139000
     27 C45         31.9090     7.3360    34.8790 ca         1 ZY2      -0.075000
     28 C46         30.7570     6.6520    35.3040 ca         1 ZY2      -0.132000
     29 O47         30.5210     9.6590    32.3880 os         1 ZY2      -0.352100
     30 C48         29.2950    10.0650    31.7520 c3         1 ZY2       0.148900
     31 N56         31.7230    -3.1150    38.0730 nh         1 ZY2      -0.853400
     32 C57         29.5740    -4.1930    37.2040 c6         1 ZY2       0.185800
     33 N1          29.6790    -3.3090    36.0110 nh         1 ZY2      -0.794400
     34 N59         33.0540    -0.3930    38.3600 nh         1 ZY2      -0.798300
     35 S60         32.6980    -0.7960    40.0040 s6         1 ZY2       1.257100
     36 C61         32.9640    -2.5530    40.1340 c3         1 ZY2      -0.375400
     37 C62         33.0030    -3.2340    38.7780 c3         1 ZY2       0.255800
     38 C68         29.3940    -3.9010    34.6840 c3         1 ZY2       0.202800
     39 C69         27.9070    -3.8230    34.3000 c3         1 ZY2      -0.130100
     40 C75         34.3780     0.1920    38.0710 c3         1 ZY2       0.206100
     41 O79         31.2710    -0.5130    40.1970 o          1 ZY2      -0.535000
     42 O80         33.6950    -0.1140    40.8370 o          1 ZY2      -0.535000
     43 C2          30.9590    -4.3920    37.8880 c6         1 ZY2       0.235800
     44 H2          28.9800     0.3810    33.7440 hn         1 ZY2       0.311500
     45 H3          30.2100     2.5150    32.1220 h1         1 ZY2       0.096700
     46 H4          27.3190     2.7550    33.0790 h1         1 ZY2       0.040700
     47 H51C        27.7290     0.8980    31.4290 hc         1 ZY2       0.052200
     48 H52C        28.8150     1.7310    30.3330 hc         1 ZY2       0.052200
     49 H61C        28.8390     3.4800    34.8690 h1         1 ZY2       0.057700
     50 H62C        29.7560     4.4720    33.7250 h1         1 ZY2       0.057700
     51 H21         27.3810     3.5940    31.0610 ho         1 ZY2       0.440000
     52 H20         27.7110     5.7120    33.3100 hn         1 ZY2       0.414000
     53 H9          32.3810     1.2530    36.4990 ha         1 ZY2       0.141000
     54 H13         29.4590    -1.1920    34.5010 ha         1 ZY2       0.118000
     55 H15         27.9470    -1.4620    31.5110 ha         1 ZY2       0.110000
     56 H19         31.4590     0.9190    30.6620 ha         1 ZY2       0.110000
     57 H16         29.2990    -3.5310    31.2790 ha         1 ZY2       0.112500
     58 H17         31.7310    -3.3860    30.7530 ha         1 ZY2       0.114000
     59 H18         32.8060    -1.1580    30.4420 ha         1 ZY2       0.112500
     60 H371        27.4500     6.9550    35.3840 h1         1 ZY2       0.058200
     61 H372        28.4440     5.7340    36.1800 h1         1 ZY2       0.058200
     62 H42         28.4280     8.2100    33.3590 ha         1 ZY2       0.113000
     63 H46         30.8450     5.8740    36.0580 ha         1 ZY2       0.116000
     64 H44         32.6990     8.8680    33.5720 ha         1 ZY2       0.126000
     65 H45         32.8780     7.0870    35.3050 ha         1 ZY2       0.115000
     66 H481        28.5790    10.4440    32.4920 h1         1 ZY2       0.041033
     67 H482        29.4900    10.8650    31.0270 h1         1 ZY2       0.041033
     68 H483        28.8370     9.2240    31.2160 h1         1 ZY2       0.041033
     69 H621        33.2450    -4.2950    38.9370 h1         1 ZY2       0.057200
     70 H622        33.8230    -2.8330    38.1650 h1         1 ZY2       0.057200
     71 H221        31.5510    -5.0810    37.2690 h1         1 ZY2       0.045700
     72 H222        30.8000    -4.8830    38.8590 h1         1 ZY2       0.045700
     73 H571        28.8830    -3.7430    37.9320 h1         1 ZY2       0.054200
     74 H572        29.1620    -5.1780    36.9380 h1         1 ZY2       0.054200
     75 H681        29.9870    -3.3970    33.9090 h1         1 ZY2       0.054700
     76 H682        29.7080    -4.9540    34.6720 h1         1 ZY2       0.054700
     77 H751        34.5900     0.1610    36.9940 h1         1 ZY2       0.052033
     78 H752        34.4180     1.2390    38.4000 h1         1 ZY2       0.052033
     79 H753        35.1730    -0.3710    38.5790 h1         1 ZY2       0.052033
     80 H611        33.9270    -2.6740    40.6380 h1         1 ZY2       0.109700
     81 H612        32.1620    -2.9500    40.7610 h1         1 ZY2       0.109700
     82 H691        27.2910    -4.3610    35.0300 hc         1 ZY2       0.041700
     83 H692        27.5700    -2.7810    34.2600 hc         1 ZY2       0.041700
     84 H693        27.7460    -4.2750    33.3140 hc         1 ZY2       0.041700
@<TRIPOS>BOND
     1     1     2 1   
     2     1     7 2   
     3     1     8 1   
     4     2     3 1   
     5     2    44 1   
     6     3     4 1   
     7     3     5 1   
     8     3    45 1   
     9     4     6 1   
    10     4    21 1   
    11     4    46 1   
    12     5    14 1   
    13     5    47 1   
    14     5    48 1   
    15     6    20 1   
    16     6    49 1   
    17     6    50 1   
    18     8     9 ar  
    19     8    13 ar  
    20     9    10 ar  
    21     9    53 1   
    22    10    11 ar  
    23    10    34 1   
    24    11    12 ar  
    25    11    31 1   
    26    12    13 ar  
    27    12    33 1   
    28    13    54 1   
    29    14    15 ar  
    30    14    19 ar  
    31    15    16 ar  
    32    15    55 1   
    33    16    17 ar  
    34    16    57 1   
    35    17    18 ar  
    36    17    58 1   
    37    18    19 ar  
    38    18    59 1   
    39    19    56 1   
    40    20    22 1   
    41    20    52 1   
    42    21    51 1   
    43    22    23 1   
    44    22    60 1   
    45    22    61 1   
    46    23    24 ar  
    47    23    28 ar  
    48    24    25 ar  
    49    24    62 1   
    50    25    26 ar  
    51    25    29 1   
    52    26    27 ar  
    53    26    64 1   
    54    27    28 ar  
    55    27    65 1   
    56    28    63 1   
    57    29    30 1   
    58    30    66 1   
    59    30    67 1   
    60    30    68 1   
    61    31    37 1   
    62    31    43 1   
    63    32    33 1   
    64    32    43 1   
    65    32    73 1   
    66    32    74 1   
    67    33    38 1   
    68    34    35 1   
    69    34    40 1   
    70    35    36 1   
    71    35    41 2   
    72    35    42 2   
    73    36    37 1   
    74    36    80 1   
    75    36    81 1   
    76    37    69 1   
    77    37    70 1   
    78    38    39 1   
    79    38    75 1   
    80    38    76 1   
    81    39    82 1   
    82    39    83 1   
    83    39    84 1   
    84    40    77 1   
    85    40    78 1   
    86    40    79 1   
    87    43    71 1   
    88    43    72 1   
@<TRIPOS>SUBSTRUCTURE
     1 ZY2         1 TEMP              0 ****  ****    0 ROOT
