@<TRIPOS>MOLECULE
ZY2
   84    88     1     0     0
SMALL
abcg2


@<TRIPOS>ATOM
      1 C1          30.7750     1.1900    34.3610 c          1 ZY2       0.621700
      2 N2          29.5810     1.1970    33.7250 ns         1 ZY2      -0.503900
      3 C3          29.2470     2.0620    32.6070 c3         1 ZY2       0.087700
      4 C4          28.2800     3.1760    33.0500 c3         1 ZY2       0.156300
      5 C5          28.6650     1.2130    31.4640 c3         1 ZY2      -0.048100
      6 C6          28.9120     4.0970    34.0770 c3         1 ZY2       0.157800
      7 O7          31.6340     2.0590    34.1740 o          1 ZY2      -0.605100
      8 C8          30.9890     0.0650    35.3120 ca         1 ZY2      -0.153600
      9 C9          31.7410     0.2760    36.4550 ca         1 ZY2      -0.041000
     10 C10         31.9710    -0.7580    37.3570 ca         1 ZY2       0.223000
     11 C11         31.4890    -2.0630    37.1100 ca         1 ZY2       0.310000
     12 C12         30.6430    -2.2530    35.9710 ca         1 ZY2       0.247000
     13 C13         30.4250    -1.1970    35.0960 ca         1 ZY2      -0.119000
     14 C14         29.6090     0.1280    31.0180 ca         1 ZY2      -0.078300
     15 C15         29.3840    -1.2060    31.3580 ca         1 ZY2      -0.106500
     16 C16         30.2840    -2.2000    30.9840 ca         1 ZY2      -0.107000
     17 C17         31.4260    -1.8720    30.2620 ca         1 ZY2      -0.106000
     18 C18         31.6590    -0.5440    29.9130 ca         1 ZY2      -0.107000
     19 C19         30.7570     0.4450    30.2880 ca         1 ZY2      -0.106500
     20 N20         27.9420     5.0730    34.5600 n7         1 ZY2      -0.860400
     21 O21         27.9080     3.9990    31.9370 oh         1 ZY2      -0.670000
     22 C37         28.5190     6.0770    35.4580 c3         1 ZY2       0.202100
     23 C39         29.6840     6.8640    34.8840 ca         1 ZY2      -0.088300
     24 C42         29.5000     7.6130    33.7180 ca         1 ZY2      -0.188000
     25 C43         30.5670     8.3050    33.1510 ca         1 ZY2       0.135100
     26 C44         31.8280     8.2610    33.7570 ca         1 ZY2      -0.139000
     27 C45         32.0050     7.5230    34.9140 ca         1 ZY2      -0.075000
     28 C46         30.9390     6.8210    35.4790 ca         1 ZY2      -0.132000
     29 O47         30.4790     9.0490    32.0130 os         1 ZY2      -0.352100
     30 C48         29.2250     9.0970    31.3350 c3         1 ZY2       0.148900
     31 N56         31.7890    -3.1430    37.9170 nh         1 ZY2      -0.853400
     32 C57         29.8100    -4.2390    37.0000 c6         1 ZY2       0.185800
     33 N1          30.1080    -3.5230    35.7660 nh         1 ZY2      -0.794400
     34 N59         32.7120    -0.4160    38.5410 nh         1 ZY2      -0.798300
     35 S60         32.1880    -0.9310    40.0100 s6         1 ZY2       1.257100
     36 C61         32.8110    -2.6080    40.1330 c3         1 ZY2      -0.375400
     37 C62         32.9870    -3.1910    38.7310 c3         1 ZY2       0.255800
     38 C68         29.1880    -3.7580    34.6580 c3         1 ZY2       0.202800
     39 C69         27.7770    -3.1950    34.8450 c3         1 ZY2      -0.130100
     40 C75         34.0900     0.0680    38.3910 c3         1 ZY2       0.206100
     41 O79         30.7450    -0.9720    39.9630 o          1 ZY2      -0.535000
     42 O80         32.8270    -0.1260    41.0260 o          1 ZY2      -0.535000
     43 C2          31.0870    -4.4120    37.7850 c6         1 ZY2       0.235800
     44 H2          28.9030     0.4990    33.9850 hn         1 ZY2       0.311500
     45 H3          30.1760     2.5260    32.2750 h1         1 ZY2       0.096700
     46 H4          27.3840     2.7130    33.4790 h1         1 ZY2       0.040700
     47 H51C        27.7220     0.7710    31.7970 hc         1 ZY2       0.052200
     48 H52C        28.4390     1.8770    30.6280 hc         1 ZY2       0.052200
     49 H61C        29.2700     3.5100    34.9240 h1         1 ZY2       0.057700
     50 H62C        29.7920     4.5660    33.6140 h1         1 ZY2       0.057700
     51 H21         27.1710     3.5880    31.4710 ho         1 ZY2       0.440000
     52 H20         27.5280     5.5360    33.7580 hn         1 ZY2       0.414000
     53 H9          32.1290     1.2620    36.6700 ha         1 ZY2       0.141000
     54 H13         29.8410    -1.3660    34.2060 ha         1 ZY2       0.118000
     55 H15         28.5000    -1.4680    31.9270 ha         1 ZY2       0.110000
     56 H19         30.9460     1.4770    30.0150 ha         1 ZY2       0.110000
     57 H16         30.0930    -3.2300    31.2600 ha         1 ZY2       0.112500
     58 H17         32.1280    -2.6430    29.9700 ha         1 ZY2       0.114000
     59 H18         32.5440    -0.2790    29.3470 ha         1 ZY2       0.112500
     60 H371        27.7170     6.7650    35.7360 h1         1 ZY2       0.058200
     61 H372        28.8480     5.5750    36.3700 h1         1 ZY2       0.058200
     62 H42         28.5220     7.6370    33.2570 ha         1 ZY2       0.113000
     63 H46         31.0880     6.2320    36.3760 ha         1 ZY2       0.116000
     64 H44         32.6480     8.8040    33.3050 ha         1 ZY2       0.126000
     65 H45         32.9830     7.4860    35.3780 ha         1 ZY2       0.115000
     66 H481        28.4520     9.5400    31.9670 h1         1 ZY2       0.041033
     67 H482        29.3830     9.7220    30.4590 h1         1 ZY2       0.041033
     68 H483        28.9100     8.0990    31.0220 h1         1 ZY2       0.041033
     69 H621        33.2780    -4.2360    38.8390 h1         1 ZY2       0.057200
     70 H622        33.8100    -2.6910    38.2210 h1         1 ZY2       0.057200
     71 H221        31.7300    -5.1430    37.2820 h1         1 ZY2       0.045700
     72 H222        30.8600    -4.7970    38.7840 h1         1 ZY2       0.045700
     73 H571        29.0620    -3.7070    37.6020 h1         1 ZY2       0.054200
     74 H572        29.4050    -5.2190    36.7500 h1         1 ZY2       0.054200
     75 H681        29.6390    -3.3620    33.7490 h1         1 ZY2       0.054700
     76 H682        29.1310    -4.8410    34.5280 h1         1 ZY2       0.054700
     77 H751        34.7160    -0.6830    37.9040 h1         1 ZY2       0.052033
     78 H752        34.0940     0.9770    37.7920 h1         1 ZY2       0.052033
     79 H753        34.4980     0.3000    39.3700 h1         1 ZY2       0.052033
     80 H611        33.7650    -2.5620    40.6570 h1         1 ZY2       0.109700
     81 H612        32.0920    -3.1680    40.7300 h1         1 ZY2       0.109700
     82 H691        27.2870    -3.6500    35.7080 hc         1 ZY2       0.041700
     83 H692        27.7900    -2.1150    34.9910 hc         1 ZY2       0.041700
     84 H693        27.1740    -3.4110    33.9610 hc         1 ZY2       0.041700
@<TRIPOS>BOND
     1     1     2 1   
     2     1     7 2   
     3     1     8 1   
     4     2     3 1   
     5     2    44 1   
     6     3     4 1   
     7     3     5 1   
     8     3    45 1   
     9     4     6 1   
    10     4    21 1   
    11     4    46 1   
    12     5    14 1   
    13     5    47 1   
    14     5    48 1   
    15     6    20 1   
    16     6    49 1   
    17     6    50 1   
    18     8     9 ar  
    19     8    13 ar  
    20     9    10 ar  
    21     9    53 1   
    22    10    11 ar  
    23    10    34 1   
    24    11    12 ar  
    25    11    31 1   
    26    12    13 ar  
    27    12    33 1   
    28    13    54 1   
    29    14    15 ar  
    30    14    19 ar  
    31    15    16 ar  
    32    15    55 1   
    33    16    17 ar  
    34    16    57 1   
    35    17    18 ar  
    36    17    58 1   
    37    18    19 ar  
    38    18    59 1   
    39    19    56 1   
    40    20    22 1   
    41    20    52 1   
    42    21    51 1   
    43    22    23 1   
    44    22    60 1   
    45    22    61 1   
    46    23    24 ar  
    47    23    28 ar  
    48    24    25 ar  
    49    24    62 1   
    50    25    26 ar  
    51    25    29 1   
    52    26    27 ar  
    53    26    64 1   
    54    27    28 ar  
    55    27    65 1   
    56    28    63 1   
    57    29    30 1   
    58    30    66 1   
    59    30    67 1   
    60    30    68 1   
    61    31    37 1   
    62    31    43 1   
    63    32    33 1   
    64    32    43 1   
    65    32    73 1   
    66    32    74 1   
    67    33    38 1   
    68    34    35 1   
    69    34    40 1   
    70    35    36 1   
    71    35    41 2   
    72    35    42 2   
    73    36    37 1   
    74    36    80 1   
    75    36    81 1   
    76    37    69 1   
    77    37    70 1   
    78    38    39 1   
    79    38    75 1   
    80    38    76 1   
    81    39    82 1   
    82    39    83 1   
    83    39    84 1   
    84    40    77 1   
    85    40    78 1   
    86    40    79 1   
    87    43    71 1   
    88    43    72 1   
@<TRIPOS>SUBSTRUCTURE
     1 ZY2         1 TEMP              0 ****  ****    0 ROOT
