@<TRIPOS>MOLECULE
ZY3
   81    84     1     0     0
SMALL
abcg2


@<TRIPOS>ATOM
      1 O3           0.3350    -1.7290    -1.1800 o          1 ZY3      -0.598100
      2 C13          0.5350    -0.8560    -0.3460 c          1 ZY3       0.619700
      3 C5           1.7910    -0.0470    -0.3520 ca         1 ZY3      -0.099600
      4 C6           2.3880     0.2520    -1.5620 ca         1 ZY3      -0.097000
      5 C7           3.5410     1.0330    -1.5910 ca         1 ZY3       0.316000
      6 C12          4.1330     1.5080    -0.4220 ca         1 ZY3      -0.131300
      7 C11          5.3240     2.4350    -0.3650 c3         1 ZY3      -0.047100
      8 C10          5.6190     3.3200    -1.5740 c3         1 ZY3      -0.048400
      9 C9           6.3880     2.6840    -2.7220 c3         1 ZY3      -0.344400
     10 S            5.6750     1.1070    -3.1680 s6         1 ZY3       1.223100
     11 O1           5.8590     0.8860    -4.5940 o          1 ZY3      -0.529000
     12 O2           6.1400     0.0950    -2.2320 o          1 ZY3      -0.529000
     13 N2           4.0610     1.3170    -2.8830 nh         1 ZY3      -0.788300
     14 C8           3.2850     2.1150    -3.8270 c3         1 ZY3       0.204100
     15 C4           2.4010     0.3450     0.8340 ca         1 ZY3      -0.167000
     16 C3           3.5810     1.0890     0.8170 ca         1 ZY3       0.319000
     17 N1           4.1920     1.4710     1.9890 nu         1 ZY3      -0.951200
     18 C2           3.7430     0.9810     3.2750 c3         1 ZY3       0.203800
     19 C1           4.5960     1.5640     4.3860 c3         1 ZY3      -0.105100
     20 N3          -0.3380    -0.5340     0.6230 ns         1 ZY3      -0.494900
     21 C14         -1.5590    -1.2570     0.8980 c3         1 ZY3       0.084700
     22 C15         -1.5560    -1.7510     2.3530 c3         1 ZY3      -0.047100
     23 C16         -0.3140    -2.5370     2.6690 ca         1 ZY3      -0.079300
     24 C21          0.7090    -1.9800     3.4310 ca         1 ZY3      -0.105000
     25 C20          1.8740    -2.6910     3.6910 ca         1 ZY3      -0.106000
     26 C19          2.0300    -3.9760     3.1920 ca         1 ZY3      -0.104000
     27 C18          1.0130    -4.5440     2.4330 ca         1 ZY3      -0.106000
     28 C17         -0.1470    -3.8280     2.1750 ca         1 ZY3      -0.105000
     29 C22         -2.7720    -0.3860     0.5390 c3         1 ZY3       0.143300
     30 O4          -2.7460     0.8560     1.2130 oh         1 ZY3      -0.656000
     31 C23         -4.0950    -1.1120     0.7340 c3         1 ZY3       0.131800
     32 N4          -5.1760    -0.3790     0.1120 n7         1 ZY3      -0.859400
     33 C24         -6.4610    -1.0240     0.2750 c3         1 ZY3       0.206100
     34 C25         -7.5680    -0.2860    -0.4320 ca         1 ZY3      -0.056300
     35 C31         -7.3150     0.4430    -1.5840 ca         1 ZY3      -0.124000
     36 C29         -8.3470     1.1020    -2.2560 ca         1 ZY3       0.137100
     37 O5          -7.9890     1.7860    -3.3620 os         1 ZY3      -0.341100
     38 C30         -8.9860     2.5000    -4.0640 c3         1 ZY3       0.148900
     39 C28         -9.6490     1.0270    -1.7700 ca         1 ZY3      -0.197000
     40 C27         -9.8960     0.2940    -0.6140 ca         1 ZY3      -0.075000
     41 C26         -8.8740    -0.3540     0.0570 ca         1 ZY3      -0.149000
     42 H3          -0.1490     0.2780     1.1880 hn         1 ZY3       0.322500
     43 H6           1.9620    -0.1070    -2.4890 ha         1 ZY3       0.144000
     44 H4           1.9800     0.0260     1.7780 ha         1 ZY3       0.121000
     45 H111         5.1490     3.1170     0.4700 hc         1 ZY3       0.062700
     46 H112         6.2270     1.8750    -0.0910 hc         1 ZY3       0.062700
     47 H101         4.6940     3.7680    -1.9420 hc         1 ZY3       0.052700
     48 H102         6.2290     4.1560    -1.2270 hc         1 ZY3       0.052700
     49 H91C         6.3640     3.3210    -3.6070 h1         1 ZY3       0.104200
     50 H92C         7.4310     2.4900    -2.4660 h1         1 ZY3       0.104200
     51 H81C         3.4480     3.1880    -3.6980 h1         1 ZY3       0.051700
     52 H82C         3.5250     1.8390    -4.8500 h1         1 ZY3       0.051700
     53 H83C         2.2300     1.9120    -3.6690 h1         1 ZY3       0.051700
     54 H1           5.1940     1.5640     1.9330 hn         1 ZY3       0.468000
     55 H21C         2.7030     1.2760     3.4290 h1         1 ZY3       0.038200
     56 H22C         3.7700    -0.1170     3.3240 h1         1 ZY3       0.038200
     57 H11C         5.6450     1.2850     4.2700 hc         1 ZY3       0.043033
     58 H12C         4.5320     2.6520     4.4000 hc         1 ZY3       0.043033
     59 H13C         4.2600     1.1900     5.3520 hc         1 ZY3       0.043033
     60 H14         -1.5700    -2.1240     0.2350 h1         1 ZY3       0.092700
     61 H151        -1.6300    -0.9050     3.0420 hc         1 ZY3       0.048700
     62 H152        -2.4390    -2.3720     2.5160 hc         1 ZY3       0.048700
     63 H22         -2.6820    -0.1430    -0.5240 h1         1 ZY3       0.104700
     64 H21          0.5900    -0.9790     3.8320 ha         1 ZY3       0.107500
     65 H17         -0.9340    -4.2820     1.5830 ha         1 ZY3       0.107500
     66 H20          2.6580    -2.2390     4.2870 ha         1 ZY3       0.112000
     67 H19          2.9350    -4.5340     3.3940 ha         1 ZY3       0.115000
     68 H18          1.1250    -5.5480     2.0440 ha         1 ZY3       0.112000
     69 HA          -2.9980     0.7210     2.1330 ho         1 ZY3       0.433000
     70 H231        -4.0270    -2.0990     0.2670 h1         1 ZY3       0.033700
     71 H232        -4.2690    -1.2910     1.8090 h1         1 ZY3       0.033700
     72 HB          -5.2210     0.5510     0.5120 hn         1 ZY3       0.422000
     73 H241        -6.3860    -2.0330    -0.1460 h1         1 ZY3       0.037200
     74 H242        -6.7420    -1.1650     1.3310 h1         1 ZY3       0.037200
     75 H31         -6.3040     0.5120    -1.9670 ha         1 ZY3       0.145000
     76 H26         -9.0850    -0.9070     0.9640 ha         1 ZY3       0.110000
     77 H28        -10.4700     1.5280    -2.2640 ha         1 ZY3       0.116000
     78 H301        -9.7650     1.8410    -4.4550 h1         1 ZY3       0.039367
     79 H302        -9.4540     3.2660    -3.4410 h1         1 ZY3       0.039367
     80 H303        -8.4880     2.9860    -4.8990 h1         1 ZY3       0.039367
     81 H27        -10.9080     0.2410    -0.2330 ha         1 ZY3       0.110000
@<TRIPOS>BOND
     1     1     2 2   
     2     2     3 1   
     3     2    20 1   
     4     3     4 ar  
     5     3    15 ar  
     6     4     5 ar  
     7     4    43 1   
     8     5     6 ar  
     9     5    13 1   
    10     6     7 1   
    11     6    16 ar  
    12     7     8 1   
    13     7    45 1   
    14     7    46 1   
    15     8     9 1   
    16     8    47 1   
    17     8    48 1   
    18     9    10 1   
    19     9    49 1   
    20     9    50 1   
    21    10    11 2   
    22    10    12 2   
    23    10    13 1   
    24    13    14 1   
    25    14    51 1   
    26    14    52 1   
    27    14    53 1   
    28    15    16 ar  
    29    15    44 1   
    30    16    17 1   
    31    17    18 1   
    32    17    54 1   
    33    18    19 1   
    34    18    55 1   
    35    18    56 1   
    36    19    57 1   
    37    19    58 1   
    38    19    59 1   
    39    20    21 1   
    40    20    42 1   
    41    21    22 1   
    42    21    29 1   
    43    21    60 1   
    44    22    23 1   
    45    22    61 1   
    46    22    62 1   
    47    23    24 ar  
    48    23    28 ar  
    49    24    25 ar  
    50    24    64 1   
    51    25    26 ar  
    52    25    66 1   
    53    26    27 ar  
    54    26    67 1   
    55    27    28 ar  
    56    27    68 1   
    57    28    65 1   
    58    29    30 1   
    59    29    31 1   
    60    29    63 1   
    61    30    69 1   
    62    31    32 1   
    63    31    70 1   
    64    31    71 1   
    65    32    33 1   
    66    32    72 1   
    67    33    34 1   
    68    33    73 1   
    69    33    74 1   
    70    34    35 ar  
    71    34    41 ar  
    72    35    36 ar  
    73    35    75 1   
    74    36    37 1   
    75    36    39 ar  
    76    37    38 1   
    77    38    78 1   
    78    38    79 1   
    79    38    80 1   
    80    39    40 ar  
    81    39    77 1   
    82    40    41 ar  
    83    40    81 1   
    84    41    76 1   
@<TRIPOS>SUBSTRUCTURE
     1 ZY3         1 TEMP              0 ****  ****    0 ROOT
