@<TRIPOS>MOLECULE
ZY3
   81    84     1     0     0
SMALL
No Charge or Current Charge


@<TRIPOS>ATOM
      1 O3          -0.2230    -0.5440    -1.6080 o          1 ZY3      -0.598100
      2 C13          0.2970    -0.2510    -0.5400 c          1 ZY3       0.619700
      3 C5           1.6750     0.3750    -0.4490 ca         1 ZY3      -0.099600
      4 C6           2.3070     0.8500    -1.6100 ca         1 ZY3      -0.097000
      5 C7           3.5910     1.4280    -1.5850 ca         1 ZY3       0.316000
      6 C12          4.2850     1.5550    -0.3430 ca         1 ZY3      -0.131300
      7 C11          5.6720     2.2330    -0.1850 c3         1 ZY3      -0.047100
      8 C10          6.1190     3.2310    -1.2730 c3         1 ZY3      -0.048400
      9 C9           6.7510     2.5700    -2.5170 c3         1 ZY3      -0.344400
     10 S            5.6990     1.3560    -3.3080 s6         1 ZY3       1.223100
     11 O1           5.7890     1.5270    -4.7620 o          1 ZY3      -0.529000
     12 O2           5.9510     0.0430    -2.7050 o          1 ZY3      -0.529000
     13 N2           4.1080     1.8150    -2.8390 nh         1 ZY3      -0.788300
     14 C8           3.3670     2.7170    -3.7400 c3         1 ZY3       0.204100
     15 C4           2.3810     0.4640     0.7660 ca         1 ZY3      -0.167000
     16 C3           3.6660     1.0290     0.8240 ca         1 ZY3       0.319000
     17 N1           4.3330     1.0550     2.0600 nu         1 ZY3      -0.951200
     18 C2           4.0430     0.2340     3.2450 c3         1 ZY3       0.203800
     19 C1           5.1070     0.4700     4.3270 c3         1 ZY3      -0.105100
     20 N3          -0.3270    -0.5070     0.6600 ns         1 ZY3      -0.494900
     21 C14         -1.5790    -1.2580     0.8310 c3         1 ZY3       0.084700
     22 C15         -1.6680    -1.7940     2.2890 c3         1 ZY3      -0.047100
     23 C16         -0.3400    -2.3490     2.8040 ca         1 ZY3      -0.079300
     24 C21          0.3480    -1.6970     3.8470 ca         1 ZY3      -0.105000
     25 C20          1.5840    -2.1900     4.2990 ca         1 ZY3      -0.106000
     26 C19          2.1420    -3.3360     3.7090 ca         1 ZY3      -0.104000
     27 C18          1.4600    -3.9920     2.6700 ca         1 ZY3      -0.106000
     28 C17          0.2230    -3.5010     2.2200 ca         1 ZY3      -0.105000
     29 C22         -2.8280    -0.4450     0.3560 c3         1 ZY3       0.143300
     30 O4          -2.9550     0.7930     1.0970 oh         1 ZY3      -0.656000
     31 C23         -4.1550    -1.2570     0.4330 c3         1 ZY3       0.131800
     32 N4          -5.2830    -0.4950    -0.1440 n7         1 ZY3      -0.859400
     33 C24         -6.6130    -1.1050     0.0310 c3         1 ZY3       0.206100
     34 C25         -7.6970    -0.2090    -0.5580 ca         1 ZY3      -0.056300
     35 C31         -7.9670    -0.2360    -1.9400 ca         1 ZY3      -0.124000
     36 C29         -8.9650     0.5830    -2.4930 ca         1 ZY3       0.137100
     37 O5          -9.1800     0.5090    -3.8550 os         1 ZY3      -0.341100
     38 C30        -10.1780     1.3060    -4.5190 c3         1 ZY3       0.148900
     39 C28         -9.7060     1.4430    -1.6530 ca         1 ZY3      -0.197000
     40 C27         -9.4400     1.4750    -0.2730 ca         1 ZY3      -0.075000
     41 C26         -8.4400     0.6530     0.2720 ca         1 ZY3      -0.149000
     42 H3           0.1680    -0.2220     1.4930 hn         1 ZY3       0.322500
     43 H6           1.7980     0.7550    -2.5650 ha         1 ZY3       0.144000
     44 H4           1.9410     0.0760     1.6770 ha         1 ZY3       0.121000
     45 H111         5.6770     2.8160     0.7440 hc         1 ZY3       0.062700
     46 H112         6.4490     1.4680    -0.0590 hc         1 ZY3       0.062700
     47 H101         5.2760     3.8740    -1.5580 hc         1 ZY3       0.052700
     48 H102         6.8710     3.9030    -0.8390 hc         1 ZY3       0.052700
     49 H91C         6.9520     3.3300    -3.2790 h1         1 ZY3       0.104200
     50 H92C         7.6830     2.0530    -2.2700 h1         1 ZY3       0.104200
     51 H81C         4.0080     3.5410    -4.0820 h1         1 ZY3       0.051700
     52 H82C         2.9960     2.1680    -4.6160 h1         1 ZY3       0.051700
     53 H83C         2.5060     3.1610    -3.2230 h1         1 ZY3       0.051700
     54 H1           5.2500     1.4980     2.0410 hn         1 ZY3       0.468000
     55 H21C         3.0550     0.4870     3.6510 h1         1 ZY3       0.038200
     56 H22C         4.0390    -0.8310     2.9720 h1         1 ZY3       0.038200
     57 H11C         6.1040     0.1980     3.9610 hc         1 ZY3       0.043033
     58 H12C         5.1210     1.5210     4.6370 hc         1 ZY3       0.043033
     59 H13C         4.8880    -0.1440     5.2090 hc         1 ZY3       0.043033
     60 H14         -1.5060    -2.1380     0.1760 h1         1 ZY3       0.092700
     61 H151        -2.0110    -0.9900     2.9520 hc         1 ZY3       0.048700
     62 H152        -2.4350    -2.5760     2.3410 hc         1 ZY3       0.048700
     63 H22         -2.6700    -0.2130    -0.7070 h1         1 ZY3       0.104700
     64 H21         -0.0710    -0.8050     4.3080 ha         1 ZY3       0.107500
     65 H17         -0.2950    -4.0120     1.4120 ha         1 ZY3       0.107500
     66 H20          2.1100    -1.6830     5.1050 ha         1 ZY3       0.112000
     67 H19          3.1000    -3.7170     4.0570 ha         1 ZY3       0.115000
     68 H18          1.8910    -4.8800     2.2130 ha         1 ZY3       0.112000
     69 HA          -3.0690     0.5560     2.0410 ho         1 ZY3       0.433000
     70 H231        -4.0260    -2.2060    -0.1060 h1         1 ZY3       0.033700
     71 H232        -4.3630    -1.5000     1.4830 h1         1 ZY3       0.033700
     72 HB          -5.2960     0.4280     0.3090 hn         1 ZY3       0.422000
     73 H241        -6.6520    -2.0860    -0.4630 h1         1 ZY3       0.037200
     74 H242        -6.8220    -1.2680     1.0970 h1         1 ZY3       0.037200
     75 H31         -7.3960    -0.8930    -2.5900 ha         1 ZY3       0.145000
     76 H26         -8.2420     0.6860     1.3410 ha         1 ZY3       0.110000
     77 H28        -10.4850     2.0880    -2.0490 ha         1 ZY3       0.116000
     78 H301       -11.1780     1.0850    -4.1250 h1         1 ZY3       0.039367
     79 H302        -9.9740     2.3760    -4.3850 h1         1 ZY3       0.039367
     80 H303       -10.1800     1.0920    -5.5950 h1         1 ZY3       0.039367
     81 H27        -10.0100     2.1380     0.3750 ha         1 ZY3       0.110000
@<TRIPOS>BOND
     1     1     2 2   
     2     2     3 1   
     3     2    20 1   
     4     3     4 ar  
     5     3    15 ar  
     6     4     5 ar  
     7     4    43 1   
     8     5     6 ar  
     9     5    13 1   
    10     6     7 1   
    11     6    16 ar  
    12     7     8 1   
    13     7    45 1   
    14     7    46 1   
    15     8     9 1   
    16     8    47 1   
    17     8    48 1   
    18     9    10 1   
    19     9    49 1   
    20     9    50 1   
    21    10    11 2   
    22    10    12 2   
    23    10    13 1   
    24    13    14 1   
    25    14    51 1   
    26    14    52 1   
    27    14    53 1   
    28    15    16 ar  
    29    15    44 1   
    30    16    17 1   
    31    17    18 1   
    32    17    54 1   
    33    18    19 1   
    34    18    55 1   
    35    18    56 1   
    36    19    57 1   
    37    19    58 1   
    38    19    59 1   
    39    20    21 1   
    40    20    42 1   
    41    21    22 1   
    42    21    29 1   
    43    21    60 1   
    44    22    23 1   
    45    22    61 1   
    46    22    62 1   
    47    23    24 ar  
    48    23    28 ar  
    49    24    25 ar  
    50    24    64 1   
    51    25    26 ar  
    52    25    66 1   
    53    26    27 ar  
    54    26    67 1   
    55    27    28 ar  
    56    27    68 1   
    57    28    65 1   
    58    29    30 1   
    59    29    31 1   
    60    29    63 1   
    61    30    69 1   
    62    31    32 1   
    63    31    70 1   
    64    31    71 1   
    65    32    33 1   
    66    32    72 1   
    67    33    34 1   
    68    33    73 1   
    69    33    74 1   
    70    34    35 ar  
    71    34    41 ar  
    72    35    36 ar  
    73    35    75 1   
    74    36    37 1   
    75    36    39 ar  
    76    37    38 1   
    77    38    78 1   
    78    38    79 1   
    79    38    80 1   
    80    39    40 ar  
    81    39    77 1   
    82    40    41 ar  
    83    40    81 1   
    84    41    76 1   
@<TRIPOS>SUBSTRUCTURE
     1 ZY3         1 TEMP              0 ****  ****    0 ROOT
