@<TRIPOS>MOLECULE
ZY4
   78    82     1     0     0
SMALL
abcg2


@<TRIPOS>ATOM
      1 C1           0.0180     0.3750     0.7250 c          1 ZY4       0.619700
      2 N2          -0.9790    -0.0800    -0.0580 ns         1 ZY4      -0.475900
      3 C3          -2.2980     0.5050    -0.0890 c3         1 ZY4       0.092700
      4 C4          -3.3540    -0.6110    -0.1120 c3         1 ZY4       0.397000
      5 C5          -2.4140     1.4810    -1.2760 c3         1 ZY4      -0.055100
      6 C6          -4.7860    -0.0510    -0.1750 c3         1 ZY4       0.091800
      7 O7          -0.1390     1.1970     1.6150 o          1 ZY4      -0.591100
      8 C8           1.3670    -0.1830     0.4110 ca         1 ZY4      -0.112600
      9 C9           2.4580     0.7030     0.5080 ca         1 ZY4      -0.108000
     10 C10          3.7310     0.2870     0.1810 ca         1 ZY4       0.309000
     11 C11          3.9190    -1.0320    -0.2420 ca         1 ZY4      -0.100800
     12 C12          2.8340    -1.9260    -0.2530 ca         1 ZY4      -0.031200
     13 C13          1.5390    -1.5100     0.0540 ca         1 ZY4      -0.103000
     14 C14         -1.3190     2.5090    -1.2420 ca         1 ZY4      -0.085300
     15 C15         -0.1420     2.3200    -1.9600 ca         1 ZY4      -0.097500
     16 C16          0.9070     3.2260    -1.8600 ca         1 ZY4      -0.105000
     17 C17          0.7880     4.3390    -1.0390 ca         1 ZY4      -0.108000
     18 C18         -0.3880     4.5440    -0.3290 ca         1 ZY4      -0.105000
     19 C19         -1.4300     3.6350    -0.4300 ca         1 ZY4      -0.097500
     20 N20         -5.7010    -1.1020     0.2260 n7         1 ZY4      -0.884400
     21 O21         -3.1180    -1.4920    -1.1970 oh         1 ZY4      -0.659000
     22 C39         -7.0160    -0.6560     0.6560 c6         1 ZY4       0.178500
     23 C42         -7.8030    -1.8300     1.2260 c6         1 ZY4      -0.130900
     24 C43         -9.1990    -1.3850     1.6360 c6         1 ZY4       0.156600
     25 O1          -9.9030    -0.7930     0.5660 os         1 ZY4      -0.447000
     26 C45         -9.2390     0.3470     0.0670 c6         1 ZY4       0.156600
     27 C46         -7.8440     0.0170    -0.4430 c6         1 ZY4      -0.130900
     28 C7           5.0720    -1.7410    -0.6840 cc         1 ZY4      -0.162400
     29 C57          4.6490    -3.0200    -0.9180 cd         1 ZY4      -0.129100
     30 N1           3.3120    -3.1430    -0.6470 na         1 ZY4      -0.081700
     31 N59          4.8610     1.1320     0.2450 nh         1 ZY4      -0.761300
     32 S60          6.1040     0.5900     1.2360 s6         1 ZY4       1.178100
     33 C61          7.1230    -0.4740     0.1950 c3         1 ZY4      -0.295400
     34 C68          2.5110    -4.3300    -0.8770 c3         1 ZY4       0.075600
     35 C69          1.7570    -4.2900    -2.1970 c3         1 ZY4      -0.116100
     36 O79          5.5330    -0.2360     2.2900 o          1 ZY4      -0.529000
     37 O80          6.8890     1.7590     1.6060 o          1 ZY4      -0.529000
     38 C20          6.3990    -1.1270    -0.9790 c3         1 ZY4       0.040800
     39 O2          -3.2120    -1.3510     1.0450 oh         1 ZY4      -0.659000
     40 C2           4.6980     2.5700     0.0650 c3         1 ZY4       0.209100
     41 H2          -0.7360    -0.6640    -0.8430 hn         1 ZY4       0.316500
     42 H3          -2.4300     1.0720     0.8340 h1         1 ZY4       0.100700
     43 H51C        -2.3680     0.9260    -2.2180 hc         1 ZY4       0.045200
     44 H52C        -3.3880     1.9740    -1.2440 hc         1 ZY4       0.045200
     45 H61C        -4.8730     0.7710     0.5420 h1         1 ZY4       0.047200
     46 H62C        -4.9980     0.3700    -1.1650 h1         1 ZY4       0.047200
     47 HA          -4.1100    -1.6920     1.2270 ho         1 ZY4       0.463500
     48 HB          -3.4300    -1.0940    -2.0170 ho         1 ZY4       0.463500
     49 H20         -5.8060    -1.7760    -0.5250 hn         1 ZY4       0.425000
     50 H9           2.2730     1.7200     0.8250 ha         1 ZY4       0.139000
     51 H13          0.7040    -2.2010     0.0320 ha         1 ZY4       0.130000
     52 H15         -0.0410     1.4540    -2.6040 ha         1 ZY4       0.108000
     53 H19         -2.3410     3.7970     0.1370 ha         1 ZY4       0.108000
     54 H16          1.8170     3.0580    -2.4220 ha         1 ZY4       0.113000
     55 H17          1.6050     5.0450    -0.9580 ha         1 ZY4       0.112000
     56 H18         -0.4920     5.4140     0.3070 ha         1 ZY4       0.113000
     57 H39         -6.8620     0.0740     1.4600 h1         1 ZY4       0.061700
     58 H421        -7.8770    -2.6240     0.4760 hc         1 ZY4       0.054200
     59 H422        -7.2850    -2.2470     2.0920 hc         1 ZY4       0.054200
     60 H461        -7.3640     0.9380    -0.7840 hc         1 ZY4       0.054200
     61 H462        -7.9100    -0.6530    -1.3070 hc         1 ZY4       0.054200
     62 H431        -9.7910    -2.2370     1.9760 h1         1 ZY4       0.047200
     63 H432        -9.1250    -0.6790     2.4770 h1         1 ZY4       0.047200
     64 H451        -9.8570     0.7550    -0.7340 h1         1 ZY4       0.047200
     65 H452        -9.1650     1.1170     0.8500 h1         1 ZY4       0.047200
     66 H57          5.2090    -3.8690    -1.2800 h4         1 ZY4       0.214000
     67 H201         7.0770    -1.8780    -1.3860 hc         1 ZY4       0.052200
     68 H202         6.2750    -0.3740    -1.7610 hc         1 ZY4       0.052200
     69 H681         3.1830    -5.1870    -0.8480 h1         1 ZY4       0.062200
     70 H682         1.8190    -4.4450    -0.0420 h1         1 ZY4       0.062200
     71 H21C         4.3220     3.0810     0.9530 h1         1 ZY4       0.050367
     72 H22C         5.6410     3.0210    -0.2290 h1         1 ZY4       0.050367
     73 H23C         3.9920     2.7180    -0.7490 h1         1 ZY4       0.050367
     74 H611         7.9390     0.1480    -0.1720 h1         1 ZY4       0.101200
     75 H612         7.5350    -1.2130     0.8840 h1         1 ZY4       0.101200
     76 H691         1.0600    -3.4520    -2.2380 hc         1 ZY4       0.047700
     77 H692         2.4440    -4.2040    -3.0390 hc         1 ZY4       0.047700
     78 H693         1.1830    -5.2080    -2.3200 hc         1 ZY4       0.047700
@<TRIPOS>BOND
     1     1     2 1   
     2     1     7 2   
     3     1     8 1   
     4     2     3 1   
     5     2    41 1   
     6     3     4 1   
     7     3     5 1   
     8     3    42 1   
     9     4     6 1   
    10     4    21 1   
    11     4    39 1   
    12     5    14 1   
    13     5    43 1   
    14     5    44 1   
    15     6    20 1   
    16     6    45 1   
    17     6    46 1   
    18     8     9 ar  
    19     8    13 ar  
    20     9    10 ar  
    21     9    50 1   
    22    10    11 ar  
    23    10    31 1   
    24    11    12 ar  
    25    11    28 1   
    26    12    13 ar  
    27    12    30 1   
    28    13    51 1   
    29    14    15 ar  
    30    14    19 ar  
    31    15    16 ar  
    32    15    52 1   
    33    16    17 ar  
    34    16    54 1   
    35    17    18 ar  
    36    17    55 1   
    37    18    19 ar  
    38    18    56 1   
    39    19    53 1   
    40    20    22 1   
    41    20    49 1   
    42    21    48 1   
    43    22    23 1   
    44    22    27 1   
    45    22    57 1   
    46    23    24 1   
    47    23    58 1   
    48    23    59 1   
    49    24    25 1   
    50    24    62 1   
    51    24    63 1   
    52    25    26 1   
    53    26    27 1   
    54    26    64 1   
    55    26    65 1   
    56    27    60 1   
    57    27    61 1   
    58    28    29 2   
    59    28    38 1   
    60    29    30 1   
    61    29    66 1   
    62    30    34 1   
    63    31    32 1   
    64    31    40 1   
    65    32    33 1   
    66    32    36 2   
    67    32    37 2   
    68    33    38 1   
    69    33    74 1   
    70    33    75 1   
    71    34    35 1   
    72    34    69 1   
    73    34    70 1   
    74    35    76 1   
    75    35    77 1   
    76    35    78 1   
    77    38    67 1   
    78    38    68 1   
    79    39    47 1   
    80    40    71 1   
    81    40    72 1   
    82    40    73 1   
@<TRIPOS>SUBSTRUCTURE
     1 ZY4         1 TEMP              0 ****  ****    0 ROOT
