@<TRIPOS>MOLECULE
ZY4
   78    82     1     0     0
SMALL
No Charge or Current Charge


@<TRIPOS>ATOM
      1 C1           0.0680     0.6760     0.2620 c          1 ZY4       0.619700
      2 N2          -0.9470     0.0260    -0.4050 ns         1 ZY4      -0.475900
      3 C3          -2.3480     0.4840    -0.4890 c3         1 ZY4       0.092700
      4 C4          -3.3580    -0.6700    -0.1460 c3         1 ZY4       0.397000
      5 C5          -2.6070     1.1490    -1.8700 c3         1 ZY4      -0.055100
      6 C6          -4.8600    -0.2300    -0.1460 c3         1 ZY4       0.091800
      7 O7          -0.1420     1.6870     0.9210 o          1 ZY4      -0.591100
      8 C8           1.4540     0.0770     0.1260 ca         1 ZY4      -0.112600
      9 C9           2.5370     0.6580     0.8430 ca         1 ZY4      -0.108000
     10 C10          3.8490     0.1470     0.7480 ca         1 ZY4       0.309000
     11 C11          4.0470    -0.9590    -0.0930 ca         1 ZY4      -0.100800
     12 C12          3.0260    -1.5250    -0.8050 ca         1 ZY4      -0.031200
     13 C13          1.7140    -1.0360    -0.7170 ca         1 ZY4      -0.103000
     14 C14         -1.5930     2.2360    -2.2120 ca         1 ZY4      -0.085300
     15 C15         -0.4980     1.9520    -3.0520 ca         1 ZY4      -0.097500
     16 C16          0.4460     2.9490    -3.3490 ca         1 ZY4      -0.105000
     17 C17          0.3000     4.2390    -2.8100 ca         1 ZY4      -0.108000
     18 C18         -0.7910     4.5290    -1.9730 ca         1 ZY4      -0.105000
     19 C19         -1.7340     3.5300    -1.6740 ca         1 ZY4      -0.097500
     20 N20         -5.6960    -1.1350     0.7110 n7         1 ZY4      -0.884400
     21 O21         -3.1640    -1.7780    -1.0130 oh         1 ZY4      -0.659000
     22 C39         -6.9530    -0.5840     1.2480 c6         1 ZY4       0.178500
     23 C42         -7.5450    -1.5550     2.2930 c6         1 ZY4      -0.130900
     24 C43         -8.9120    -1.0390     2.7960 c6         1 ZY4       0.156600
     25 O1          -9.8010    -0.8400     1.6760 os         1 ZY4      -0.447000
     26 C45         -9.3320     0.1390     0.7240 c6         1 ZY4       0.156600
     27 C46         -7.9820    -0.3180     0.1220 c6         1 ZY4      -0.130900
     28 C7           5.2550    -1.6690    -0.4160 cc         1 ZY4      -0.162400
     29 C57          4.8970    -2.6510    -1.3330 cd         1 ZY4      -0.129100
     30 N1           3.5100    -2.5690    -1.5810 na         1 ZY4      -0.081700
     31 N59          4.9200     0.7620     1.4220 nh         1 ZY4      -0.761300
     32 S60          5.8370    -0.1360     2.5810 s6         1 ZY4       1.178100
     33 C61          6.5410    -1.5620     1.7270 c3         1 ZY4      -0.295400
     34 C68          2.6930    -3.3960    -2.4840 c3         1 ZY4       0.075600
     35 C69          2.4340    -2.7210    -3.8440 c3         1 ZY4      -0.116100
     36 O79          4.8760    -0.6190     3.5780 o          1 ZY4      -0.529000
     37 O80          6.9430     0.7330     3.0010 o          1 ZY4      -0.529000
     38 C20          6.6050    -1.4300     0.1950 c3         1 ZY4       0.040800
     39 O2          -3.1290    -1.1750     1.1490 oh         1 ZY4      -0.659000
     40 C2           5.0620     2.2290     1.4450 c3         1 ZY4       0.209100
     41 H2          -0.7140    -0.8400    -0.8700 hn         1 ZY4       0.316500
     42 H3          -2.4990     1.2610     0.2730 h1         1 ZY4       0.100700
     43 H51C        -2.5980     0.3760    -2.6490 hc         1 ZY4       0.045200
     44 H52C        -3.6170     1.5770    -1.8840 hc         1 ZY4       0.045200
     45 H61C        -4.9020     0.7940     0.2500 h1         1 ZY4       0.047200
     46 H62C        -5.2430    -0.1900    -1.1760 h1         1 ZY4       0.047200
     47 HA          -4.0670    -1.3190     1.4370 ho         1 ZY4       0.463500
     48 HB          -3.9950    -2.2910    -0.9780 ho         1 ZY4       0.463500
     49 H20         -5.9280    -1.9930     0.1910 hn         1 ZY4       0.425000
     50 H9           2.3570     1.5150     1.4850 ha         1 ZY4       0.139000
     51 H13          0.9280    -1.5040    -1.3030 ha         1 ZY4       0.130000
     52 H15         -0.3740     0.9550    -3.4690 ha         1 ZY4       0.108000
     53 H19         -2.5720     3.7620    -1.0200 ha         1 ZY4       0.108000
     54 H16          1.2910     2.7230    -3.9950 ha         1 ZY4       0.113000
     55 H17          1.0310     5.0110    -3.0390 ha         1 ZY4       0.112000
     56 H18         -0.9040     5.5260    -1.5540 ha         1 ZY4       0.113000
     57 H39         -6.7360     0.3700     1.7560 h1         1 ZY4       0.061700
     58 H421        -7.6710    -2.5550     1.8570 hc         1 ZY4       0.054200
     59 H422        -6.8550    -1.6630     3.1410 hc         1 ZY4       0.054200
     60 H461        -7.6100     0.4540    -0.5650 hc         1 ZY4       0.054200
     61 H462        -8.1390    -1.2270    -0.4750 hc         1 ZY4       0.054200
     62 H431        -9.3610    -1.7690     3.4840 h1         1 ZY4       0.047200
     63 H432        -8.7890    -0.0890     3.3370 h1         1 ZY4       0.047200
     64 H451       -10.0800     0.2520    -0.0730 h1         1 ZY4       0.047200
     65 H452        -9.2180     1.1110     1.2260 h1         1 ZY4       0.047200
     66 H57          5.5170    -3.4050    -1.8100 h4         1 ZY4       0.214000
     67 H201         7.3130    -2.1730    -0.1920 hc         1 ZY4       0.052200
     68 H202         6.9980    -0.4460    -0.0940 hc         1 ZY4       0.052200
     69 H681         3.2130    -4.3480    -2.6480 h1         1 ZY4       0.062200
     70 H682         1.7380    -3.6220    -1.9950 h1         1 ZY4       0.062200
     71 H21C         4.7480     2.6360     2.4160 h1         1 ZY4       0.050367
     72 H22C         6.1030     2.5210     1.2550 h1         1 ZY4       0.050367
     73 H23C         4.4450     2.6910     0.6620 h1         1 ZY4       0.050367
     74 H611         7.5440    -1.6890     2.1480 h1         1 ZY4       0.101200
     75 H612         5.9260    -2.4230     2.0050 h1         1 ZY4       0.101200
     76 H691         1.8970    -1.7740    -3.7130 hc         1 ZY4       0.047700
     77 H692         3.3810    -2.5130    -4.3580 hc         1 ZY4       0.047700
     78 H693         1.8300    -3.3740    -4.4850 hc         1 ZY4       0.047700
@<TRIPOS>BOND
     1     1     2 1   
     2     1     7 2   
     3     1     8 1   
     4     2     3 1   
     5     2    41 1   
     6     3     4 1   
     7     3     5 1   
     8     3    42 1   
     9     4     6 1   
    10     4    21 1   
    11     4    39 1   
    12     5    14 1   
    13     5    43 1   
    14     5    44 1   
    15     6    20 1   
    16     6    45 1   
    17     6    46 1   
    18     8     9 ar  
    19     8    13 ar  
    20     9    10 ar  
    21     9    50 1   
    22    10    11 ar  
    23    10    31 1   
    24    11    12 ar  
    25    11    28 1   
    26    12    13 ar  
    27    12    30 1   
    28    13    51 1   
    29    14    15 ar  
    30    14    19 ar  
    31    15    16 ar  
    32    15    52 1   
    33    16    17 ar  
    34    16    54 1   
    35    17    18 ar  
    36    17    55 1   
    37    18    19 ar  
    38    18    56 1   
    39    19    53 1   
    40    20    22 1   
    41    20    49 1   
    42    21    48 1   
    43    22    23 1   
    44    22    27 1   
    45    22    57 1   
    46    23    24 1   
    47    23    58 1   
    48    23    59 1   
    49    24    25 1   
    50    24    62 1   
    51    24    63 1   
    52    25    26 1   
    53    26    27 1   
    54    26    64 1   
    55    26    65 1   
    56    27    60 1   
    57    27    61 1   
    58    28    29 2   
    59    28    38 1   
    60    29    30 1   
    61    29    66 1   
    62    30    34 1   
    63    31    32 1   
    64    31    40 1   
    65    32    33 1   
    66    32    36 2   
    67    32    37 2   
    68    33    38 1   
    69    33    74 1   
    70    33    75 1   
    71    34    35 1   
    72    34    69 1   
    73    34    70 1   
    74    35    76 1   
    75    35    77 1   
    76    35    78 1   
    77    38    67 1   
    78    38    68 1   
    79    39    47 1   
    80    40    71 1   
    81    40    72 1   
    82    40    73 1   
@<TRIPOS>SUBSTRUCTURE
     1 ZY4         1 TEMP              0 ****  ****    0 ROOT
