@<TRIPOS>MOLECULE
ZY5
   40    42     1     0     0
SMALL
abcg2


@<TRIPOS>ATOM
      1 C7          -0.1970     0.0390     0.0490 ce         1 ZY5      -0.093200
      2 C4          -1.6450    -0.0070     0.2420 ca         1 ZY5      -0.136800
      3 C3          -2.4260    -0.9150    -0.5030 ca         1 ZY5       0.194100
      4 O21         -1.7610    -1.6490    -1.4100 os         1 ZY5      -0.336100
      5 C22         -2.4670    -2.6150    -2.1650 c3         1 ZY5       0.145900
      6 C2          -3.7960    -1.0130    -0.2990 ca         1 ZY5      -0.243000
      7 C5          -2.2980     0.7660     1.1980 ca         1 ZY5      -0.024000
      8 C6          -3.6630     0.6810     1.4170 ca         1 ZY5      -0.249000
      9 C1          -4.4140    -0.2110     0.6590 ca         1 ZY5       0.185100
     10 O20         -5.7430    -0.3540     0.8090 oh         1 ZY5      -0.531100
     11 C8           0.5780     1.1380     0.0400 cf         1 ZY5      -0.225800
     12 C13          0.0740     2.5510     0.0600 c6         1 ZY5      -0.037200
     13 C12          0.8350     3.3540    -0.9870 c6         1 ZY5      -0.103400
     14 C11          2.3260     3.2750    -0.7190 c6         1 ZY5       0.103800
     15 N10          2.8370     1.9580    -0.4120 n2         1 ZY5      -0.581900
     16 C9           2.0460     1.0120    -0.0930 cf         1 ZY5       0.516200
     17 C14          2.6960    -0.2970     0.1840 ca         1 ZY5      -0.179900
     18 C19          3.6260    -0.8120    -0.7160 ca         1 ZY5       0.369900
     19 N18          4.2880    -1.9450    -0.5280 nb         1 ZY5      -0.671000
     20 C17          4.0600    -2.6200     0.5930 ca         1 ZY5       0.339900
     21 C16          3.1630    -2.1980     1.5620 ca         1 ZY5      -0.171000
     22 C15          2.4650    -1.0200     1.3500 ca         1 ZY5      -0.058000
     23 H7           0.2820    -0.9220    -0.1030 ha         1 ZY5       0.193000
     24 H5          -1.7150     1.4340     1.8190 ha         1 ZY5       0.118000
     25 H2          -4.4080    -1.6990    -0.8700 ha         1 ZY5       0.135000
     26 H221        -3.2390    -2.1580    -2.7890 h1         1 ZY5       0.044700
     27 H222        -1.7360    -3.0970    -2.8080 h1         1 ZY5       0.044700
     28 H223        -2.9300    -3.3720    -1.5270 h1         1 ZY5       0.044700
     29 H6          -4.1310     1.2920     2.1800 ha         1 ZY5       0.118000
     30 H20         -6.0680     0.2350     1.4990 ho         1 ZY5       0.468000
     31 H131        -0.9980     2.5860    -0.1350 hc         1 ZY5       0.052200
     32 H132         0.2300     2.9950     1.0490 hc         1 ZY5       0.052200
     33 H121         0.6110     2.9550    -1.9800 hc         1 ZY5       0.050700
     34 H122         0.5130     4.3970    -0.9850 hc         1 ZY5       0.050700
     35 H111         2.8930     3.6580    -1.5710 h1         1 ZY5       0.062700
     36 H112         2.5930     3.9260     0.1220 h1         1 ZY5       0.062700
     37 H19          3.8310    -0.2770    -1.6380 h4         1 ZY5       0.030100
     38 H15          1.7620    -0.6610     2.0910 ha         1 ZY5       0.122000
     39 H17          4.6160    -3.5420     0.7270 h4         1 ZY5       0.017100
     40 H16          3.0180    -2.7790     2.4620 ha         1 ZY5       0.123000
@<TRIPOS>BOND
     1     1     2 1   
     2     1    11 2   
     3     1    23 1   
     4     2     3 ar  
     5     2     7 ar  
     6     3     4 1   
     7     3     6 ar  
     8     4     5 1   
     9     5    26 1   
    10     5    27 1   
    11     5    28 1   
    12     6     9 ar  
    13     6    25 1   
    14     7     8 ar  
    15     7    24 1   
    16     8     9 ar  
    17     8    29 1   
    18     9    10 1   
    19    10    30 1   
    20    11    12 1   
    21    11    16 1   
    22    12    13 1   
    23    12    31 1   
    24    12    32 1   
    25    13    14 1   
    26    13    33 1   
    27    13    34 1   
    28    14    15 1   
    29    14    35 1   
    30    14    36 1   
    31    15    16 2   
    32    16    17 1   
    33    17    18 ar  
    34    17    22 ar  
    35    18    19 ar  
    36    18    37 1   
    37    19    20 ar  
    38    20    21 ar  
    39    20    39 1   
    40    21    22 ar  
    41    21    40 1   
    42    22    38 1   
@<TRIPOS>SUBSTRUCTURE
     1 ZY5         1 TEMP              0 ****  ****    0 ROOT
