@<TRIPOS>MOLECULE
ZY5
   40    42     1     0     0
SMALL
No Charge or Current Charge


@<TRIPOS>ATOM
      1 C7          -0.2330    -0.0230     0.1190 ce         1 ZY5      -0.093200
      2 C4          -1.7140    -0.0620     0.3020 ca         1 ZY5      -0.136800
      3 C3          -2.5060    -0.9260    -0.4860 ca         1 ZY5       0.194100
      4 O21         -1.8770    -1.7080    -1.4380 os         1 ZY5      -0.336100
      5 C22         -2.5980    -2.6120    -2.2920 c3         1 ZY5       0.145900
      6 C2          -3.9040    -0.9670    -0.2920 ca         1 ZY5      -0.243000
      7 C5          -2.3270     0.7320     1.2910 ca         1 ZY5      -0.024000
      8 C6          -3.7180     0.6850     1.4770 ca         1 ZY5      -0.249000
      9 C1          -4.5000    -0.1610     0.6830 ca         1 ZY5       0.185100
     10 O20         -5.8470    -0.2090     0.8620 oh         1 ZY5      -0.531100
     11 C8           0.6070     1.0540     0.0000 cf         1 ZY5      -0.225800
     12 C13          0.0320     2.4890    -0.0420 c6         1 ZY5      -0.037200
     13 C12          0.8260     3.3690    -1.0210 c6         1 ZY5      -0.103400
     14 C11          2.3260     3.2590    -0.7120 c6         1 ZY5       0.103800
     15 N10          2.7920     1.8640    -0.7120 n2         1 ZY5      -0.581900
     16 C9           2.0710     0.9140    -0.1820 cf         1 ZY5       0.516200
     17 C14          2.8030    -0.3240     0.1440 ca         1 ZY5      -0.179900
     18 C19          3.8310    -0.7900    -0.6990 ca         1 ZY5       0.369900
     19 N18          4.5660    -1.8980    -0.4350 nb         1 ZY5      -0.671000
     20 C17          4.3070    -2.5700     0.7090 ca         1 ZY5       0.339900
     21 C16          3.3230    -2.1630     1.6240 ca         1 ZY5      -0.171000
     22 C15          2.5620    -1.0170     1.3480 ca         1 ZY5      -0.058000
     23 H7           0.2020    -1.0220     0.0480 ha         1 ZY5       0.193000
     24 H5          -1.7230     1.3800     1.9230 ha         1 ZY5       0.118000
     25 H2          -4.5390    -1.6160    -0.8870 ha         1 ZY5       0.135000
     26 H221        -3.3300    -2.0710    -2.9050 h1         1 ZY5       0.044700
     27 H222        -1.9060    -3.1290    -2.9690 h1         1 ZY5       0.044700
     28 H223        -3.1250    -3.3720    -1.7010 h1         1 ZY5       0.044700
     29 H6          -4.1760     1.3060     2.2430 ha         1 ZY5       0.118000
     30 H20         -6.0800     0.4150     1.5810 ho         1 ZY5       0.468000
     31 H131        -1.0210     2.4850    -0.3520 hc         1 ZY5       0.052200
     32 H132         0.0670     2.9250     0.9670 hc         1 ZY5       0.052200
     33 H121         0.6360     3.0430    -2.0520 hc         1 ZY5       0.050700
     34 H122         0.4980     4.4150    -0.9500 hc         1 ZY5       0.050700
     35 H111         2.9000     3.8290    -1.4580 h1         1 ZY5       0.062700
     36 H112         2.5340     3.7010     0.2740 h1         1 ZY5       0.062700
     37 H19          4.0700    -0.2770    -1.6300 h4         1 ZY5       0.030100
     38 H15          1.8070    -0.6740     2.0540 ha         1 ZY5       0.122000
     39 H17          4.9120    -3.4560     0.9010 h4         1 ZY5       0.017100
     40 H16          3.1630    -2.7300     2.5370 ha         1 ZY5       0.123000
@<TRIPOS>BOND
     1     1     2 1   
     2     1    11 2   
     3     1    23 1   
     4     2     3 ar  
     5     2     7 ar  
     6     3     4 1   
     7     3     6 ar  
     8     4     5 1   
     9     5    26 1   
    10     5    27 1   
    11     5    28 1   
    12     6     9 ar  
    13     6    25 1   
    14     7     8 ar  
    15     7    24 1   
    16     8     9 ar  
    17     8    29 1   
    18     9    10 1   
    19    10    30 1   
    20    11    12 1   
    21    11    16 1   
    22    12    13 1   
    23    12    31 1   
    24    12    32 1   
    25    13    14 1   
    26    13    33 1   
    27    13    34 1   
    28    14    15 1   
    29    14    35 1   
    30    14    36 1   
    31    15    16 2   
    32    16    17 1   
    33    17    18 ar  
    34    17    22 ar  
    35    18    19 ar  
    36    18    37 1   
    37    19    20 ar  
    38    20    21 ar  
    39    20    39 1   
    40    21    22 ar  
    41    21    40 1   
    42    22    38 1   
@<TRIPOS>SUBSTRUCTURE
     1 ZY5         1 TEMP              0 ****  ****    0 ROOT
