@<TRIPOS>MOLECULE
ZY6
   42    45     1     0     0
SMALL
No Charge or Current Charge


@<TRIPOS>ATOM
      1 CAE         -1.5720    -2.2580     1.3920 ca         1 ZY6      -0.104000
      2 CAC         -1.1730    -3.6000     1.5120 ca         1 ZY6      -0.114000
      3 CAB         -0.4260    -4.2050     0.4880 ca         1 ZY6      -0.113000
      4 CAD         -0.0830    -3.4680    -0.6580 ca         1 ZY6      -0.114000
      5 CAF         -0.4840    -2.1260    -0.7750 ca         1 ZY6      -0.104000
      6 CAQ         -1.2270    -1.4940     0.2520 cp         1 ZY6      -0.018000
      7 CAR         -1.6560    -0.0680     0.1300 cp         1 ZY6      -0.202000
      8 CAG         -3.0150     0.2750     0.3340 ca         1 ZY6       0.415900
      9 NAN         -3.5120     1.5310     0.2260 nb         1 ZY6      -0.705000
     10 CAU         -2.6390     2.4950    -0.0920 ca         1 ZY6       0.401500
     11 NAO         -2.8240     3.8540    -0.2420 na         1 ZY6      -0.166100
     12 NAM         -1.6180     4.5180    -0.5290 nc         1 ZY6      -0.514100
     13 CAH         -0.7090     3.5340    -0.5590 cd         1 ZY6       0.366800
     14 CAT         -1.3200     2.2590    -0.3010 ca         1 ZY6      -0.329900
     15 CAS         -0.7680     0.9860    -0.2050 ca         1 ZY6       0.443000
     16 NAV          0.6210     0.8050    -0.3780 nh         1 ZY6      -0.816400
     17 CAL          1.4870     0.2980     0.7330 c6         1 ZY6       0.179800
     18 CAK          1.3510     1.2680    -1.5990 c6         1 ZY6       0.170800
     19 CAJ          2.4790     0.2740    -2.0090 c6         1 ZY6       0.145600
     20 OAP          3.3350    -0.0300    -0.8820 os         1 ZY6      -0.426000
     21 CAW          2.6160    -0.6510     0.2170 c6         1 ZY6       0.158300
     22 CAI          3.6320    -1.0070     1.3530 c3         1 ZY6       0.154800
     23 NAA          4.7010    -1.9770     0.9860 n8         1 ZY6      -0.979200
     24 HAE         -2.1450    -1.8010     2.1960 ha         1 ZY6       0.118000
     25 HAC         -1.4410    -4.1710     2.3990 ha         1 ZY6       0.113000
     26 HAB         -0.1160    -5.2440     0.5800 ha         1 ZY6       0.113000
     27 HAD          0.4910    -3.9360    -1.4550 ha         1 ZY6       0.113000
     28 HAF         -0.2190    -1.5670    -1.6680 ha         1 ZY6       0.118000
     29 HAG         -3.7400    -0.4980     0.5860 h4         1 ZY6       0.023100
     30 HAO         -3.7140     4.3370    -0.1510 hn         1 ZY6       0.387000
     31 HAH          0.3260     3.7880    -0.7460 h4         1 ZY6       0.047800
     32 HAL1         1.9460     1.1490     1.2570 h1         1 ZY6       0.057700
     33 HAL2         0.8850    -0.2450     1.4760 h1         1 ZY6       0.057700
     34 HAK1         0.6550     1.3790    -2.4430 h1         1 ZY6       0.052700
     35 HAK2         1.8060     2.2520    -1.4160 h1         1 ZY6       0.052700
     36 HAW          2.1600    -1.5840    -0.1440 h1         1 ZY6       0.046700
     37 HAJ1         2.0360    -0.6580    -2.3860 h1         1 ZY6       0.054200
     38 HAJ2         3.0850     0.7120    -2.8140 h1         1 ZY6       0.054200
     39 HAI1         4.1080    -0.0810     1.7030 h1         1 ZY6       0.037700
     40 HAI2         3.0670    -1.4300     2.1960 h1         1 ZY6       0.037700
     41 HAA1         5.2480    -2.2090     1.8240 hn         1 ZY6       0.392500
     42 HAA2         4.2690    -2.8710     0.7220 hn         1 ZY6       0.392500
@<TRIPOS>BOND
     1     1     2 ar  
     2     1     6 ar  
     3     1    24 1   
     4     2     3 ar  
     5     2    25 1   
     6     3     4 ar  
     7     3    26 1   
     8     4     5 ar  
     9     4    27 1   
    10     5     6 ar  
    11     5    28 1   
    12     6     7 1   
    13     7     8 ar  
    14     7    15 ar  
    15     8     9 ar  
    16     8    29 1   
    17     9    10 ar  
    18    10    11 1   
    19    10    14 ar  
    20    11    12 1   
    21    11    30 1   
    22    12    13 2   
    23    13    14 1   
    24    13    31 1   
    25    14    15 ar  
    26    15    16 1   
    27    16    17 1   
    28    16    18 1   
    29    17    21 1   
    30    17    32 1   
    31    17    33 1   
    32    18    19 1   
    33    18    34 1   
    34    18    35 1   
    35    19    20 1   
    36    19    37 1   
    37    19    38 1   
    38    20    21 1   
    39    21    22 1   
    40    21    36 1   
    41    22    23 1   
    42    22    39 1   
    43    22    40 1   
    44    23    41 1   
    45    23    42 1   
@<TRIPOS>SUBSTRUCTURE
     1 ZY6         1 TEMP              0 ****  ****    0 ROOT
