@<TRIPOS>MOLECULE
ZY6
   42    45     1     0     0
SMALL
bcc


@<TRIPOS>ATOM
      1 CAE         -1.4330    -2.1280     1.6010 ca         1 ZY6      -0.122000
      2 CAC         -1.1090    -3.4680     1.7620 ca         1 ZY6      -0.132000
      3 CAB         -0.5000    -4.1670     0.7290 ca         1 ZY6      -0.131000
      4 CAD         -0.2250    -3.5160    -0.4690 ca         1 ZY6      -0.132000
      5 CAF         -0.5530    -2.1790    -0.6300 ca         1 ZY6      -0.122000
      6 CAQ         -1.1570    -1.4640     0.4060 cp         1 ZY6      -0.018000
      7 CAR         -1.5480    -0.0490     0.2180 cp         1 ZY6      -0.267300
      8 CAG         -2.9030     0.2680     0.4050 ca         1 ZY6       0.481200
      9 NAN         -3.4760     1.4350     0.1800 nb         1 ZY6      -0.705000
     10 CAU         -2.6300     2.3530    -0.2740 ca         1 ZY6       0.466800
     11 NAO         -2.9260     3.6350    -0.5690 na         1 ZY6      -0.115800
     12 NAM         -1.8510     4.3260    -0.9580 nc         1 ZY6      -0.514100
     13 CAH         -0.8370     3.5010    -0.9240 cd         1 ZY6       0.366800
     14 CAT         -1.2490     2.2030    -0.5020 ca         1 ZY6      -0.395200
     15 CAS         -0.6580     0.9490    -0.2280 ca         1 ZY6       0.304600
     16 NAV          0.6810     0.7080    -0.3900 nh         1 ZY6      -0.678000
     17 CAL          1.4640     0.0900     0.6700 c6         1 ZY6       0.179800
     18 CAK          1.4970     1.5440    -1.2470 c6         1 ZY6       0.170800
     19 CAJ          2.6520     0.7130    -1.7770 c6         1 ZY6       0.122400
     20 OAP          3.4150     0.1460    -0.7390 os         1 ZY6      -0.379600
     21 CAW          2.6310    -0.6900     0.0850 c6         1 ZY6       0.135100
     22 CAI          3.5010    -1.2660     1.1870 c3         1 ZY6       0.154800
     23 NAA          4.5590    -2.1030     0.6500 n8         1 ZY6      -0.868800
     24 HAE         -1.8920    -1.5860     2.4200 ha         1 ZY6       0.136000
     25 HAC         -1.3280    -3.9640     2.6990 ha         1 ZY6       0.131000
     26 HAB         -0.2410    -5.2100     0.8540 ha         1 ZY6       0.131000
     27 HAD          0.2450    -4.0530    -1.2830 ha         1 ZY6       0.131000
     28 HAF         -0.3360    -1.6840    -1.5680 ha         1 ZY6       0.136000
     29 HAG         -3.5640    -0.5260     0.7410 h4         1 ZY6       0.023100
     30 HAO         -3.8260     4.0840    -0.5120 hn         1 ZY6       0.336700
     31 HAH          0.1430     3.8550    -1.1970 h4         1 ZY6       0.047800
     32 HAL1         1.8510     0.8740     1.3380 h1         1 ZY6       0.057700
     33 HAL2         0.8440    -0.5670     1.2720 h1         1 ZY6       0.057700
     34 HAK1         0.9120     1.8940    -2.0980 h1         1 ZY6       0.052700
     35 HAK2         1.8820     2.4210    -0.7100 h1         1 ZY6       0.052700
     36 HAW          2.2190    -1.5180    -0.5160 h1         1 ZY6       0.046700
     37 HAJ1         2.2500    -0.0710    -2.4350 h1         1 ZY6       0.054200
     38 HAJ2         3.3180     1.3430    -2.3680 h1         1 ZY6       0.054200
     39 HAI1         3.9550    -0.4440     1.7480 h1         1 ZY6       0.037700
     40 HAI2         2.8340    -1.7880     1.8880 h1         1 ZY6       0.037700
     41 HAA1         5.1360    -2.4340     1.4130 hn         1 ZY6       0.337300
     42 HAA2         4.1540    -2.9340     0.2360 hn         1 ZY6       0.337300
@<TRIPOS>BOND
     1     1     2 ar  
     2     1     6 ar  
     3     1    24 1   
     4     2     3 ar  
     5     2    25 1   
     6     3     4 ar  
     7     3    26 1   
     8     4     5 ar  
     9     4    27 1   
    10     5     6 ar  
    11     5    28 1   
    12     6     7 1   
    13     7     8 ar  
    14     7    15 ar  
    15     8     9 ar  
    16     8    29 1   
    17     9    10 ar  
    18    10    11 1   
    19    10    14 ar  
    20    11    12 1   
    21    11    30 1   
    22    12    13 2   
    23    13    14 1   
    24    13    31 1   
    25    14    15 ar  
    26    15    16 1   
    27    16    17 1   
    28    16    18 1   
    29    17    21 1   
    30    17    32 1   
    31    17    33 1   
    32    18    19 1   
    33    18    34 1   
    34    18    35 1   
    35    19    20 1   
    36    19    37 1   
    37    19    38 1   
    38    20    21 1   
    39    21    22 1   
    40    21    36 1   
    41    22    23 1   
    42    22    39 1   
    43    22    40 1   
    44    23    41 1   
    45    23    42 1   
@<TRIPOS>SUBSTRUCTURE
     1 ZY6         1 TEMP              0 ****  ****    0 ROOT
