@<TRIPOS>MOLECULE
ZY7
   43    45     1     0     0
SMALL
abcg2


@<TRIPOS>ATOM
      1 C7           0.1120     0.0500    -0.0050 ce         1 ZY7      -0.092200
      2 C4          -1.3440    -0.0130     0.1120 ca         1 ZY7      -0.136800
      3 C3          -2.0680    -0.9910    -0.6040 ca         1 ZY7       0.192100
      4 O21         -1.3400    -1.7830    -1.4070 os         1 ZY7      -0.336100
      5 C22         -1.9860    -2.8270    -2.1110 c3         1 ZY7       0.146900
      6 C2          -3.4430    -1.0920    -0.4740 ca         1 ZY7      -0.244000
      7 C5          -2.0630     0.8170     0.9640 ca         1 ZY7      -0.028000
      8 C6          -3.4410     0.7310     1.1120 ca         1 ZY7      -0.241000
      9 C1          -4.1340    -0.2270     0.3810 ca         1 ZY7       0.187100
     10 O20         -5.4650    -0.4060     0.4310 os         1 ZY7      -0.341100
     11 C8           0.8680     1.1610    -0.0530 cf         1 ZY7      -0.227800
     12 C13          0.3350     2.5610    -0.1510 c6         1 ZY7      -0.037200
     13 C12          1.1410     3.3240    -1.1950 c6         1 ZY7      -0.102400
     14 C11          2.6160     3.2880    -0.8410 c6         1 ZY7       0.103800
     15 N10          3.1320     1.9960    -0.4470 n2         1 ZY7      -0.582900
     16 C9           2.3410     1.0540    -0.1140 cf         1 ZY7       0.516200
     17 C14          2.9980    -0.2290     0.2510 ca         1 ZY7      -0.179900
     18 C19          3.9530    -0.7810    -0.5990 ca         1 ZY7       0.368900
     19 N18          4.6230    -1.8950    -0.3350 nb         1 ZY7      -0.671000
     20 C17          4.3780    -2.5100     0.8160 ca         1 ZY7       0.339900
     21 C16          3.4550    -2.0460     1.7420 ca         1 ZY7      -0.171000
     22 C15          2.7500    -0.8890     1.4510 ca         1 ZY7      -0.058000
     23 C23         -6.2300     0.4380     1.2700 c3         1 ZY7       0.148900
     24 H7           0.6150    -0.9090    -0.0660 ha         1 ZY7       0.193000
     25 H221        -1.2090    -3.3560    -2.6560 h1         1 ZY7       0.044367
     26 H222        -2.4830    -3.5270    -1.4350 h1         1 ZY7       0.044367
     27 H223        -2.7180    -2.4420    -2.8250 h1         1 ZY7       0.044367
     28 H2          -4.0120    -1.8310    -1.0230 ha         1 ZY7       0.134000
     29 H5          -1.5290     1.5420     1.5640 ha         1 ZY7       0.116000
     30 H6          -3.9390     1.4000     1.7990 ha         1 ZY7       0.121000
     31 H131        -0.7220     2.5540    -0.4160 hc         1 ZY7       0.051700
     32 H132         0.4130     3.0690     0.8160 hc         1 ZY7       0.051700
     33 H121         0.9800     2.8730    -2.1780 hc         1 ZY7       0.050700
     34 H122         0.8020     4.3590    -1.2620 hc         1 ZY7       0.050700
     35 H111         3.2230     3.6440    -1.6770 h1         1 ZY7       0.062200
     36 H112         2.8230     3.9800    -0.0170 h1         1 ZY7       0.062200
     37 H19          4.1730    -0.2950    -1.5430 h4         1 ZY7       0.029100
     38 H17          4.9410    -3.4160     1.0130 h4         1 ZY7       0.017100
     39 H16          3.2960    -2.5780     2.6690 ha         1 ZY7       0.123000
     40 H15          2.0260    -0.4990     2.1550 ha         1 ZY7       0.122000
     41 H231        -5.9450     0.3350     2.3200 h1         1 ZY7       0.042700
     42 H232        -6.1430     1.4880     0.9810 h1         1 ZY7       0.042700
     43 H233        -7.2660     0.1280     1.1560 h1         1 ZY7       0.042700
@<TRIPOS>BOND
     1     1     2 1   
     2     1    11 2   
     3     1    24 1   
     4     2     3 ar  
     5     2     7 ar  
     6     3     4 1   
     7     3     6 ar  
     8     4     5 1   
     9     5    25 1   
    10     5    26 1   
    11     5    27 1   
    12     6     9 ar  
    13     6    28 1   
    14     7     8 ar  
    15     7    29 1   
    16     8     9 ar  
    17     8    30 1   
    18     9    10 1   
    19    10    23 1   
    20    11    12 1   
    21    11    16 1   
    22    12    13 1   
    23    12    31 1   
    24    12    32 1   
    25    13    14 1   
    26    13    33 1   
    27    13    34 1   
    28    14    15 1   
    29    14    35 1   
    30    14    36 1   
    31    15    16 2   
    32    16    17 1   
    33    17    18 ar  
    34    17    22 ar  
    35    18    19 ar  
    36    18    37 1   
    37    19    20 ar  
    38    20    21 ar  
    39    20    38 1   
    40    21    22 ar  
    41    21    39 1   
    42    22    40 1   
    43    23    41 1   
    44    23    42 1   
    45    23    43 1   
@<TRIPOS>SUBSTRUCTURE
     1 ZY7         1 TEMP              0 ****  ****    0 ROOT
