@<TRIPOS>MOLECULE
ZY7
   43    45     1     0     0
SMALL
No Charge or Current Charge


@<TRIPOS>ATOM
      1 C7           0.0890    -0.0180     0.0380 ce         1 ZY7      -0.092200
      2 C4          -1.3990    -0.0770     0.1530 ca         1 ZY7      -0.136800
      3 C3          -2.1360    -1.0030    -0.6160 ca         1 ZY7       0.192100
      4 O21         -1.4480    -1.8280    -1.4870 os         1 ZY7      -0.336100
      5 C22         -2.1100    -2.7980    -2.3170 c3         1 ZY7       0.146900
      6 C2          -3.5400    -1.0600    -0.4870 ca         1 ZY7      -0.244000
      7 C5          -2.0730     0.7630     1.0600 ca         1 ZY7      -0.028000
      8 C6          -3.4700     0.7010     1.1840 ca         1 ZY7      -0.241000
      9 C1          -4.2070    -0.2120     0.4050 ca         1 ZY7       0.187100
     10 O20         -5.5800    -0.3170     0.4850 os         1 ZY7      -0.341100
     11 C8           0.9130     1.0680    -0.1070 cf         1 ZY7      -0.227800
     12 C13          0.3150     2.4850    -0.2650 c6         1 ZY7      -0.037200
     13 C12          1.1400     3.3200    -1.2580 c6         1 ZY7      -0.102400
     14 C11          2.6250     3.2610    -0.8720 c6         1 ZY7       0.103800
     15 N10          3.1150     1.8780    -0.7640 n2         1 ZY7      -0.582900
     16 C9           2.3870     0.9480    -0.2100 cf         1 ZY7       0.516200
     17 C14          3.1240    -0.2530     0.2270 ca         1 ZY7      -0.179900
     18 C19          4.2000    -0.7480    -0.5350 ca         1 ZY7       0.368900
     19 N18          4.9420    -1.8220    -0.1680 nb         1 ZY7      -0.671000
     20 C17          4.6390    -2.4280     1.0030 ca         1 ZY7       0.339900
     21 C16          3.6050    -1.9860     1.8430 ca         1 ZY7      -0.171000
     22 C15          2.8370    -0.8750     1.4590 ca         1 ZY7      -0.058000
     23 C23         -6.3620     0.5060     1.3680 c3         1 ZY7       0.148900
     24 H7           0.5440    -1.0100     0.0510 ha         1 ZY7       0.193000
     25 H221        -1.3760    -3.3400    -2.9260 h1         1 ZY7       0.044367
     26 H222        -2.6510    -3.5310    -1.7050 h1         1 ZY7       0.044367
     27 H223        -2.8200    -2.3100    -2.9960 h1         1 ZY7       0.044367
     28 H2          -4.1320    -1.7580    -1.0710 ha         1 ZY7       0.134000
     29 H5          -1.5110     1.4600     1.6780 ha         1 ZY7       0.116000
     30 H6          -3.9580     1.3650     1.8910 ha         1 ZY7       0.121000
     31 H131        -0.7210     2.4390    -0.6240 hc         1 ZY7       0.051700
     32 H132         0.2920     2.9820     0.7140 hc         1 ZY7       0.051700
     33 H121         1.0060     2.9270    -2.2760 hc         1 ZY7       0.050700
     34 H122         0.7890     4.3610    -1.2680 hc         1 ZY7       0.050700
     35 H111         3.2240     3.7950    -1.6240 h1         1 ZY7       0.062200
     36 H112         2.7760     3.7660     0.0940 h1         1 ZY7       0.062200
     37 H19          4.4750    -0.2880    -1.4840 h4         1 ZY7       0.029100
     38 H17          5.2500    -3.2870     1.2780 h4         1 ZY7       0.017100
     39 H16          3.4100    -2.4980     2.7800 ha         1 ZY7       0.123000
     40 H15          2.0420    -0.5060     2.1060 ha         1 ZY7       0.122000
     41 H231        -6.0700     0.3450     2.4140 h1         1 ZY7       0.042700
     42 H232        -6.2350     1.5690     1.1260 h1         1 ZY7       0.042700
     43 H233        -7.4270     0.2620     1.2720 h1         1 ZY7       0.042700
@<TRIPOS>BOND
     1     1     2 1   
     2     1    11 2   
     3     1    24 1   
     4     2     3 ar  
     5     2     7 ar  
     6     3     4 1   
     7     3     6 ar  
     8     4     5 1   
     9     5    25 1   
    10     5    26 1   
    11     5    27 1   
    12     6     9 ar  
    13     6    28 1   
    14     7     8 ar  
    15     7    29 1   
    16     8     9 ar  
    17     8    30 1   
    18     9    10 1   
    19    10    23 1   
    20    11    12 1   
    21    11    16 1   
    22    12    13 1   
    23    12    31 1   
    24    12    32 1   
    25    13    14 1   
    26    13    33 1   
    27    13    34 1   
    28    14    15 1   
    29    14    35 1   
    30    14    36 1   
    31    15    16 2   
    32    16    17 1   
    33    17    18 ar  
    34    17    22 ar  
    35    18    19 ar  
    36    18    37 1   
    37    19    20 ar  
    38    20    21 ar  
    39    20    38 1   
    40    21    22 ar  
    41    21    39 1   
    42    22    40 1   
    43    23    41 1   
    44    23    42 1   
    45    23    43 1   
@<TRIPOS>SUBSTRUCTURE
     1 ZY7         1 TEMP              0 ****  ****    0 ROOT
