@<TRIPOS>MOLECULE
ZY9
   18    18     1     0     0
SMALL
No Charge or Current Charge


@<TRIPOS>ATOM
      1 O           -3.2800    -0.1910    -0.2400 o          1 ZY9      -0.704000
      2 C           -2.2660     0.4850    -0.0920 c          1 ZY9       0.612500
      3 C10         -0.8870    -0.2320    -0.0110 ca         1 ZY9       0.298500
      4 N11          0.2590     0.5060     0.1520 nb         1 ZY9      -0.648000
      5 C9          -0.8270    -1.6440    -0.1060 ca         1 ZY9      -0.140000
      6 C8           0.4100    -2.3050    -0.0350 ca         1 ZY9      -0.111000
      7 C6           1.5660    -1.5320     0.1320 ca         1 ZY9      -0.190000
      8 C7           1.4540    -0.1320     0.2210 ca         1 ZY9       0.321300
      9 C2           2.7080     0.7490     0.4070 c3         1 ZY9       0.112500
     10 N            3.1250     1.5140    -0.8020 n8         1 ZY9      -0.992200
     11 O1          -2.3190     1.7100    -0.0060 o          1 ZY9      -0.704000
     12 H1          -1.7370    -2.2230    -0.2350 ha         1 ZY9       0.136000
     13 H2           0.4680    -3.3890    -0.1070 ha         1 ZY9       0.088000
     14 H3           2.5410    -2.0090     0.1900 ha         1 ZY9       0.091000
     15 H4           2.5190     1.4700     1.2140 h1         1 ZY9       0.017700
     16 H5           3.5530     0.1210     0.7190 h1         1 ZY9       0.017700
     17 H6           2.3540     2.1380    -1.0710 hn         1 ZY9       0.397000
     18 H7           3.8840     2.1590    -0.5480 hn         1 ZY9       0.397000
@<TRIPOS>BOND
     1     1     2 1   
     2     2     3 1   
     3     2    11 1   
     4     3     4 ar  
     5     3     5 ar  
     6     4     8 ar  
     7     5     6 ar  
     8     5    12 1   
     9     6     7 ar  
    10     6    13 1   
    11     7     8 ar  
    12     7    14 1   
    13     8     9 1   
    14     9    10 1   
    15     9    15 1   
    16     9    16 1   
    17    10    17 1   
    18    10    18 1   
@<TRIPOS>SUBSTRUCTURE
     1 ZY9         1 TEMP              0 ****  ****    0 ROOT
