@<TRIPOS>MOLECULE
ZY9
   18    18     1     0     0
SMALL
bcc


@<TRIPOS>ATOM
      1 O           -3.1270    -0.1280    -0.3400 o          1 ZY9      -0.809300
      2 C           -2.0920     0.5580    -0.2340 c          1 ZY9       0.823100
      3 C10         -0.7870    -0.2280    -0.0750 ca         1 ZY9       0.363800
      4 N11          0.3450     0.4600     0.0450 nb         1 ZY9      -0.648000
      5 C9          -0.8030    -1.6200    -0.0570 ca         1 ZY9      -0.223300
      6 C8           0.3930    -2.3010     0.0880 ca         1 ZY9      -0.129000
      7 C6           1.5690    -1.5760     0.2060 ca         1 ZY9      -0.273300
      8 C7           1.4970    -0.1870     0.1780 ca         1 ZY9       0.386600
      9 C2           2.7270     0.6710     0.3210 c3         1 ZY9       0.112500
     10 N            2.7730     1.6750    -0.7310 n8         1 ZY9      -0.881800
     11 O1          -2.0020     1.7960    -0.2450 o          1 ZY9      -0.809300
     12 H1          -1.7380    -2.1520    -0.1580 ha         1 ZY9       0.154000
     13 H2           0.4130    -3.3830     0.1030 ha         1 ZY9       0.106000
     14 H3           2.5230    -2.0740     0.3140 ha         1 ZY9       0.109000
     15 H4           2.7240     1.0980     1.3350 h1         1 ZY9       0.017700
     16 H5           3.6160     0.0420     0.2570 h1         1 ZY9       0.017700
     17 H6           1.9410     2.2470    -0.6630 hn         1 ZY9       0.341800
     18 H7           3.5540     2.2960    -0.5620 hn         1 ZY9       0.341800
@<TRIPOS>BOND
     1     1     2 1   
     2     2     3 1   
     3     2    11 1   
     4     3     4 ar  
     5     3     5 ar  
     6     4     8 ar  
     7     5     6 ar  
     8     5    12 1   
     9     6     7 ar  
    10     6    13 1   
    11     7     8 ar  
    12     7    14 1   
    13     8     9 1   
    14     9    10 1   
    15     9    15 1   
    16     9    16 1   
    17    10    17 1   
    18    10    18 1   
@<TRIPOS>SUBSTRUCTURE
     1 ZY9         1 TEMP              0 ****  ****    0 ROOT
