@<TRIPOS>MOLECULE
ZYA
   52    53     1     0     0
SMALL
bcc


@<TRIPOS>ATOM
      1 C1          -1.0900    -0.7190    -0.7000 c          1 ZYA       0.759100
      2 O1          -0.5270    -1.2540    -1.6340 o          1 ZYA      -0.601000
      3 O2          -2.3610    -0.9360    -0.3590 os         1 ZYA      -0.428900
      4 C2          -3.1070    -1.8510    -1.1720 c3         1 ZYA       0.208700
      5 C3          -4.4500    -2.0090    -0.5290 ca         1 ZYA      -0.102300
      6 C4          -5.5090    -1.1830    -0.8930 ca         1 ZYA      -0.102000
      7 C5          -6.7470    -1.3100    -0.2780 ca         1 ZYA      -0.134500
      8 C6          -6.9360    -2.2650     0.7120 ca         1 ZYA      -0.116000
      9 C7          -5.8840    -3.0940     1.0820 ca         1 ZYA      -0.134500
     10 C8          -4.6480    -2.9640     0.4640 ca         1 ZYA      -0.102000
     11 N1          -0.5110     0.1820     0.1150 ns         1 ZYA      -0.546900
     12 CA1          0.8890     0.4730     0.0000 c3         1 ZYA       0.058700
     13 C            1.7290    -0.7700     0.3040 c          1 ZYA       0.655100
     14 O            1.3700    -1.6040     1.1170 o          1 ZYA      -0.595100
     15 CB1          1.2730     1.5870     0.9840 c3         1 ZYA      -0.035100
     16 CG           0.5120     2.8590     0.7330 ca         1 ZYA      -0.126300
     17 CD1         -0.5150     3.2640     1.5760 ca         1 ZYA      -0.082000
     18 CD2          0.7990     3.6580    -0.3740 ca         1 ZYA      -0.082000
     19 CE1         -1.2410     4.4230     1.3310 ca         1 ZYA      -0.189500
     20 CE2          0.0860     4.8150    -0.6350 ca         1 ZYA      -0.189500
     21 CZ          -0.9450     5.2050     0.2200 ca         1 ZYA       0.144100
     22 OH          -1.6130     6.3390    -0.0740 oh         1 ZYA      -0.492100
     23 N2           2.9040    -0.8130    -0.3440 ns         1 ZYA      -0.562900
     24 CA2          3.8600    -1.8730    -0.1580 c3         1 ZYA       0.010700
     25 CT           5.2620    -1.3320    -0.3610 c          1 ZYA       0.530100
     26 OT           5.4940    -0.3640    -1.0390 o          1 ZYA      -0.486100
     27 CB2          3.6160    -3.0410    -1.1220 c3         1 ZYA      -0.110100
     28 CM           6.3480    -2.1030     0.3430 c3         1 ZYA       0.067900
     29 F1           7.5870    -1.6590    -0.0530 f          1 ZYA      -0.220300
     30 H21         -2.5900    -2.8110    -1.2310 h1         1 ZYA       0.056700
     31 H22         -3.2060    -1.4550    -2.1850 h1         1 ZYA       0.056700
     32 H4          -5.3680    -0.4390    -1.6690 ha         1 ZYA       0.134000
     33 H5          -7.5640    -0.6640    -0.5730 ha         1 ZYA       0.132500
     34 H6          -7.9020    -2.3670     1.1900 ha         1 ZYA       0.131000
     35 H7          -6.0260    -3.8430     1.8500 ha         1 ZYA       0.132500
     36 H8          -3.8330    -3.6170     0.7520 ha         1 ZYA       0.134000
     37 HN1         -1.0200     0.5140     0.9190 hn         1 ZYA       0.338500
     38 HA1          1.1080     0.8190    -1.0160 h1         1 ZYA       0.076700
     39 HB11         1.0980     1.2400     2.0060 hc         1 ZYA       0.064200
     40 HB12         2.3470     1.7630     0.8940 hc         1 ZYA       0.064200
     41 HD1         -0.7590     2.6730     2.4510 ha         1 ZYA       0.130500
     42 HD2          1.5970     3.3750    -1.0510 ha         1 ZYA       0.130500
     43 HE1         -2.0330     4.7140     2.0110 ha         1 ZYA       0.141000
     44 HE2          0.3280     5.4220    -1.4980 ha         1 ZYA       0.141000
     45 HO          -2.3000     6.5020     0.5810 ho         1 ZYA       0.427000
     46 HN2          3.0890    -0.1380    -1.0700 hn         1 ZYA       0.333500
     47 HA2          3.7690    -2.2420     0.8660 h1         1 ZYA       0.089700
     48 HB21         2.6160    -3.4380    -0.9600 hc         1 ZYA       0.053367
     49 HB22         3.6950    -2.7110    -2.1580 hc         1 ZYA       0.053367
     50 HB23         4.3260    -3.8520    -0.9630 hc         1 ZYA       0.053367
     51 HM1          6.2600    -3.1730     0.1420 h1         1 ZYA       0.066200
     52 HM2          6.2320    -1.9570     1.4210 h1         1 ZYA       0.066200
@<TRIPOS>BOND
     1     1     2 2   
     2     1     3 1   
     3     1    11 1   
     4     3     4 1   
     5     4     5 1   
     6     4    30 1   
     7     4    31 1   
     8     5     6 ar  
     9     5    10 ar  
    10     6     7 ar  
    11     6    32 1   
    12     7     8 ar  
    13     7    33 1   
    14     8     9 ar  
    15     8    34 1   
    16     9    10 ar  
    17     9    35 1   
    18    10    36 1   
    19    11    12 1   
    20    11    37 1   
    21    12    13 1   
    22    12    15 1   
    23    12    38 1   
    24    13    14 2   
    25    13    23 1   
    26    15    16 1   
    27    15    39 1   
    28    15    40 1   
    29    16    17 ar  
    30    16    18 ar  
    31    17    19 ar  
    32    17    41 1   
    33    18    20 ar  
    34    18    42 1   
    35    19    21 ar  
    36    19    43 1   
    37    20    21 ar  
    38    20    44 1   
    39    21    22 1   
    40    22    45 1   
    41    23    24 1   
    42    23    46 1   
    43    24    25 1   
    44    24    27 1   
    45    24    47 1   
    46    25    26 2   
    47    25    28 1   
    48    27    48 1   
    49    27    49 1   
    50    27    50 1   
    51    28    29 1   
    52    28    51 1   
    53    28    52 1   
@<TRIPOS>SUBSTRUCTURE
     1 ZYA         1 TEMP              0 ****  ****    0 ROOT
