@<TRIPOS>MOLECULE
ZYA
   52    53     1     0     0
SMALL
No Charge or Current Charge


@<TRIPOS>ATOM
      1 C1          -1.3840    -0.2000    -0.8210 c          1 ZYA       0.643100
      2 O1          -1.2760     0.3760    -1.8910 o          1 ZYA      -0.552000
      3 O2          -2.5330    -0.7120    -0.3040 os         1 ZYA      -0.452100
      4 C2          -3.7400    -0.5210    -1.0600 c3         1 ZYA       0.231900
      5 C3          -4.8940    -1.1430    -0.2860 ca         1 ZYA      -0.102300
      6 C4          -5.5780    -0.3940     0.6930 ca         1 ZYA      -0.084000
      7 C5          -6.6440    -0.9670     1.4070 ca         1 ZYA      -0.116500
      8 C6          -7.0340    -2.2920     1.1490 ca         1 ZYA      -0.098000
      9 C7          -6.3540    -3.0450     0.1760 ca         1 ZYA      -0.116500
     10 C8          -5.2870    -2.4730    -0.5400 ca         1 ZYA      -0.084000
     11 N1          -0.3580    -0.4720     0.0380 ns         1 ZYA      -0.479900
     12 CA1          1.0410    -0.0250    -0.1360 c3         1 ZYA       0.058700
     13 C            2.0280    -1.1270     0.3490 c          1 ZYA       0.588100
     14 O            1.6810    -2.0850     1.0290 o          1 ZYA      -0.595100
     15 CB1          1.2960     1.3200     0.5980 c3         1 ZYA      -0.035100
     16 CG           0.3490     2.4370     0.1680 ca         1 ZYA      -0.126300
     17 CD1         -0.7850     2.7490     0.9450 ca         1 ZYA      -0.064000
     18 CD2          0.5970     3.1590    -1.0150 ca         1 ZYA      -0.064000
     19 CE1         -1.6620     3.7710     0.5410 ca         1 ZYA      -0.171500
     20 CE2         -0.2800     4.1820    -1.4160 ca         1 ZYA      -0.171500
     21 CZ          -1.4080     4.4870    -0.6400 ca         1 ZYA       0.144100
     22 OH          -2.2520     5.4790    -1.0380 oh         1 ZYA      -0.531100
     23 N2           3.3420    -0.9510    -0.0400 ns         1 ZYA      -0.495900
     24 CA2          4.4570    -1.8720     0.2840 c3         1 ZYA       0.010700
     25 CT           5.8260    -1.1340     0.1940 c          1 ZYA       0.530100
     26 OT           5.9280    -0.0180    -0.3110 o          1 ZYA      -0.486100
     27 CB2          4.4110    -3.1350    -0.6090 c3         1 ZYA      -0.110100
     28 CM           7.0350    -1.8840     0.7910 c3         1 ZYA       0.086600
     29 F1           8.1050    -1.0750     1.0220 f          1 ZYA      -0.239000
     30 H21         -3.6600    -0.9940    -2.0480 h1         1 ZYA       0.056700
     31 H22         -3.9370     0.5490    -1.2140 h1         1 ZYA       0.056700
     32 H4          -5.2800     0.6320     0.9010 ha         1 ZYA       0.116000
     33 H5          -7.1680    -0.3840     2.1610 ha         1 ZYA       0.114500
     34 H6          -7.8590    -2.7360     1.7020 ha         1 ZYA       0.113000
     35 H7          -6.6540    -4.0710    -0.0240 ha         1 ZYA       0.114500
     36 H8          -4.7650    -3.0630    -1.2900 ha         1 ZYA       0.116000
     37 HN1         -0.6020    -1.0060     0.8630 hn         1 ZYA       0.338500
     38 HA1          1.2310     0.1200    -1.2080 h1         1 ZYA       0.076700
     39 HB11         1.2120     1.1520     1.6790 hc         1 ZYA       0.064200
     40 HB12         2.3320     1.6350     0.4260 hc         1 ZYA       0.064200
     41 HD1         -0.9910     2.1950     1.8590 ha         1 ZYA       0.112500
     42 HD2          1.4670     2.9260    -1.6260 ha         1 ZYA       0.112500
     43 HE1         -2.5340     3.9990     1.1490 ha         1 ZYA       0.123000
     44 HE2         -0.0850     4.7350    -2.3310 ha         1 ZYA       0.123000
     45 HO          -2.9740     5.5550    -0.3790 ho         1 ZYA       0.466000
     46 HN2          3.5500    -0.1260    -0.5950 hn         1 ZYA       0.333500
     47 HA2          4.3450    -2.1880     1.3300 h1         1 ZYA       0.089700
     48 HB21         3.4460    -3.6470    -0.5100 hc         1 ZYA       0.053367
     49 HB22         4.5500    -2.8700    -1.6640 hc         1 ZYA       0.053367
     50 HB23         5.1950    -3.8470    -0.3260 hc         1 ZYA       0.053367
     51 HM1          7.3320    -2.6790     0.0960 h1         1 ZYA       0.066200
     52 HM2          6.7300    -2.3430     1.7400 h1         1 ZYA       0.066200
@<TRIPOS>BOND
     1     1     2 2   
     2     1     3 1   
     3     1    11 1   
     4     3     4 1   
     5     4     5 1   
     6     4    30 1   
     7     4    31 1   
     8     5     6 ar  
     9     5    10 ar  
    10     6     7 ar  
    11     6    32 1   
    12     7     8 ar  
    13     7    33 1   
    14     8     9 ar  
    15     8    34 1   
    16     9    10 ar  
    17     9    35 1   
    18    10    36 1   
    19    11    12 1   
    20    11    37 1   
    21    12    13 1   
    22    12    15 1   
    23    12    38 1   
    24    13    14 2   
    25    13    23 1   
    26    15    16 1   
    27    15    39 1   
    28    15    40 1   
    29    16    17 ar  
    30    16    18 ar  
    31    17    19 ar  
    32    17    41 1   
    33    18    20 ar  
    34    18    42 1   
    35    19    21 ar  
    36    19    43 1   
    37    20    21 ar  
    38    20    44 1   
    39    21    22 1   
    40    22    45 1   
    41    23    24 1   
    42    23    46 1   
    43    24    25 1   
    44    24    27 1   
    45    24    47 1   
    46    25    26 2   
    47    25    28 1   
    48    27    48 1   
    49    27    49 1   
    50    27    50 1   
    51    28    29 1   
    52    28    51 1   
    53    28    52 1   
@<TRIPOS>SUBSTRUCTURE
     1 ZYA         1 TEMP              0 ****  ****    0 ROOT
