@<TRIPOS>MOLECULE
ZYB
   18    18     1     0     0
SMALL
No Charge or Current Charge


@<TRIPOS>ATOM
      1 F           -3.8700    -0.2620     0.0610 f          1 ZYB      -0.176000
      2 C2          -2.5270    -0.1260     0.0270 ca         1 ZYB       0.186000
      3 C1          -1.9580     1.1350    -0.1940 ca         1 ZYB      -0.160000
      4 C3          -1.7060    -1.2480     0.2000 ca         1 ZYB      -0.160000
      5 C4          -0.3080    -1.1090     0.1610 ca         1 ZYB      -0.053500
      6 C5           0.2880     0.1610    -0.0360 ca         1 ZYB      -0.160900
      7 C           -0.5600     1.2800    -0.2330 ca         1 ZYB      -0.053500
      8 C6           1.7820     0.2920    -0.1130 ce         1 ZYB       0.629800
      9 N            2.2960     1.5250     0.2000 nv         1 ZYB      -1.037200
     10 N1           2.5430    -0.7350    -0.3690 n2         1 ZYB      -0.417700
     11 O            3.9500    -0.5610    -0.2130 oh         1 ZYB      -0.536000
     12 H1          -2.6010     2.0000    -0.3410 ha         1 ZYB       0.135500
     13 H3          -2.1540    -2.2250     0.3620 ha         1 ZYB       0.135500
     14 H           -0.1420     2.2660    -0.4280 ha         1 ZYB       0.130500
     15 H4           0.3120    -1.9940     0.2960 ha         1 ZYB       0.130500
     16 HN1          1.7550     2.0600     0.8690 hn         1 ZYB       0.470500
     17 HN2          3.2950     1.4890     0.3690 hn         1 ZYB       0.470500
     18 HB           4.3530    -1.4330    -0.4540 ho         1 ZYB       0.468000
@<TRIPOS>BOND
     1     1     2 1   
     2     2     3 ar  
     3     2     4 ar  
     4     3     7 ar  
     5     3    12 1   
     6     4     5 ar  
     7     4    13 1   
     8     5     6 ar  
     9     5    15 1   
    10     6     7 ar  
    11     6     8 1   
    12     7    14 1   
    13     8     9 1   
    14     8    10 2   
    15     9    16 1   
    16     9    17 1   
    17    10    11 1   
    18    11    18 1   
@<TRIPOS>SUBSTRUCTURE
     1 ZYB         1 TEMP              0 ****  ****    0 ROOT
