@<TRIPOS>MOLECULE
ZYB
   18    18     1     0     0
SMALL
bcc


@<TRIPOS>ATOM
      1 F           -3.7910    -0.2550    -0.0110 f          1 ZYB      -0.140900
      2 C2          -2.4560    -0.1260    -0.0150 ca         1 ZYB       0.150900
      3 C1          -1.9040     1.1160    -0.2560 ca         1 ZYB      -0.178000
      4 C3          -1.6760    -1.2420     0.2250 ca         1 ZYB      -0.178000
      5 C4          -0.2990    -1.1020     0.2250 ca         1 ZYB      -0.071500
      6 C5           0.2960     0.1370    -0.0140 ca         1 ZYB      -0.160900
      7 C           -0.5220     1.2400    -0.2530 ca         1 ZYB      -0.071500
      8 C6           1.7680     0.2710    -0.0220 ce         1 ZYB       0.629800
      9 N            2.2900     1.4860     0.3080 nv         1 ZYB      -0.926800
     10 N1           2.4390    -0.7550    -0.3960 n2         1 ZYB      -0.516200
     11 O            3.8010    -0.5160    -0.3320 oh         1 ZYB      -0.398500
     12 H1          -2.5360     1.9720    -0.4490 ha         1 ZYB       0.153500
     13 H3          -2.1350    -2.2020     0.4200 ha         1 ZYB       0.153500
     14 H           -0.0890     2.2100    -0.4590 ha         1 ZYB       0.148500
     15 H4           0.3210    -1.9660     0.4230 ha         1 ZYB       0.148500
     16 HN1          1.7620     2.0490     0.9540 hn         1 ZYB       0.415300
     17 HN2          3.2850     1.5360     0.4560 hn         1 ZYB       0.415300
     18 HB           4.1930    -1.3380    -0.6400 ho         1 ZYB       0.429000
@<TRIPOS>BOND
     1     1     2 1   
     2     2     3 ar  
     3     2     4 ar  
     4     3     7 ar  
     5     3    12 1   
     6     4     5 ar  
     7     4    13 1   
     8     5     6 ar  
     9     5    15 1   
    10     6     7 ar  
    11     6     8 1   
    12     7    14 1   
    13     8     9 1   
    14     8    10 2   
    15     9    16 1   
    16     9    17 1   
    17    10    11 1   
    18    11    18 1   
@<TRIPOS>SUBSTRUCTURE
     1 ZYB         1 TEMP              0 ****  ****    0 ROOT
