@<TRIPOS>MOLECULE
ZYC
   30    30     1     0     0
SMALL
No Charge or Current Charge


@<TRIPOS>ATOM
      1 CAA          6.5100     0.9080    -0.0020 c3         1 ZYC      -0.097100
      2 CAB         -4.2500    -2.3820    -0.0540 c3         1 ZYC       0.156900
      3 OAC          3.2570    -1.8270    -0.0110 o          1 ZYC      -0.500000
      4 OAD         -4.5660     1.7820    -0.0720 oh         1 ZYC      -0.528100
      5 CAE          1.8510     0.1140    -0.0270 ce         1 ZYC      -0.282200
      6 CAF          0.6250    -0.4890    -0.0320 cf         1 ZYC      -0.069200
      7 CAG         -0.8980     1.5230    -0.0490 ca         1 ZYC      -0.074000
      8 CAH         -2.1890     2.0780    -0.0590 ca         1 ZYC      -0.134000
      9 CAI         -1.8580    -0.7140    -0.0460 ca         1 ZYC      -0.126000
     10 CAJ          5.5290    -0.2750    -0.0040 c3         1 ZYC       0.167600
     11 OAK         -4.3020    -0.9420    -0.0600 os         1 ZYC      -0.368100
     12 OAL          4.1980     0.2680    -0.0140 os         1 ZYC      -0.446100
     13 CAM          3.1480    -0.6090    -0.0170 c          1 ZYC       0.597300
     14 CAN         -0.7210     0.1230    -0.0430 ca         1 ZYC      -0.085800
     15 CAO         -3.3140     1.2410    -0.0630 ca         1 ZYC       0.140100
     16 CAP         -3.1580    -0.1590    -0.0560 ca         1 ZYC       0.038100
     17 HAA          6.3710     1.5270    -0.8970 hc         1 ZYC       0.045700
     18 HAAA         6.3600     1.5340     0.8850 hc         1 ZYC       0.045700
     19 HAAB         7.5440     0.5430     0.0050 hc         1 ZYC       0.045700
     20 HAB         -3.7360    -2.7500     0.8430 h1         1 ZYC       0.043367
     21 HABA        -5.2650    -2.7990    -0.0580 h1         1 ZYC       0.043367
     22 HABB        -3.7250    -2.7570    -0.9410 h1         1 ZYC       0.043367
     23 HOAD        -5.1930     1.0250    -0.0730 ho         1 ZYC       0.485000
     24 HAE          1.9310     1.1970    -0.0310 ha         1 ZYC       0.198000
     25 HAF          0.6150    -1.5820    -0.0280 ha         1 ZYC       0.190000
     26 HAG         -0.0430     2.1930    -0.0470 ha         1 ZYC       0.121000
     27 HAH         -2.3170     3.1570    -0.0640 ha         1 ZYC       0.134000
     28 HAI         -1.7170    -1.7910    -0.0410 ha         1 ZYC       0.121000
     29 HAJ          5.7050    -0.8960    -0.8920 h1         1 ZYC       0.047200
     30 HAJA         5.6950    -0.8890     0.8920 h1         1 ZYC       0.047200
@<TRIPOS>BOND
     1     1    10 1   
     2     1    17 1   
     3     1    18 1   
     4     1    19 1   
     5     2    11 1   
     6     2    20 1   
     7     2    21 1   
     8     2    22 1   
     9     3    13 2   
    10     4    15 1   
    11     4    23 1   
    12     5     6 2   
    13     5    13 1   
    14     5    24 1   
    15     6    14 1   
    16     6    25 1   
    17     7     8 ar  
    18     7    14 ar  
    19     7    26 1   
    20     8    15 ar  
    21     8    27 1   
    22     9    14 ar  
    23     9    16 ar  
    24     9    28 1   
    25    10    12 1   
    26    10    29 1   
    27    10    30 1   
    28    11    16 1   
    29    12    13 1   
    30    15    16 ar  
@<TRIPOS>SUBSTRUCTURE
     1 ZYC         1 TEMP              0 ****  ****    0 ROOT
