@<TRIPOS>MOLECULE
ZYC
   30    30     1     0     0
SMALL
abcg2


@<TRIPOS>ATOM
      1 CAA          6.4390     0.8230    -0.0010 c3         1 ZYC      -0.097100
      2 CAB         -4.1070    -2.3480    -0.0480 c3         1 ZYC       0.156900
      3 OAC          3.1740    -1.7420    -0.0360 o          1 ZYC      -0.500000
      4 OAD         -4.5340     1.6980    -0.0680 oh         1 ZYC      -0.528100
      5 CAE          1.8150     0.2160    -0.0320 ce         1 ZYC      -0.282200
      6 CAF          0.6410    -0.4280    -0.0400 cf         1 ZYC      -0.069200
      7 CAG         -0.9150     1.5350    -0.0530 ca         1 ZYC      -0.074000
      8 CAH         -2.2030     2.0390    -0.0600 ca         1 ZYC      -0.134000
      9 CAI         -1.7940    -0.7010    -0.0510 ca         1 ZYC      -0.126000
     10 CAJ          5.4310    -0.2990     0.0050 c3         1 ZYC       0.167600
     11 OAK         -4.2150    -0.9400    -0.0570 os         1 ZYC      -0.368100
     12 OAL          4.1220     0.2840     0.0010 os         1 ZYC      -0.446100
     13 CAM          3.0770    -0.5360    -0.0240 c          1 ZYC       0.597300
     14 CAN         -0.6880     0.1600    -0.0480 ca         1 ZYC      -0.085800
     15 CAO         -3.2940     1.1850    -0.0620 ca         1 ZYC       0.140100
     16 CAP         -3.0830    -0.2040    -0.0560 ca         1 ZYC       0.038100
     17 HAA          6.3460     1.4430    -0.8920 hc         1 ZYC       0.045700
     18 HAAA         6.3380     1.4590     0.8780 hc         1 ZYC       0.045700
     19 HAAB         7.4430     0.4010     0.0080 hc         1 ZYC       0.045700
     20 HAB         -3.5880    -2.7090     0.8430 h1         1 ZYC       0.043367
     21 HABA        -5.1210    -2.7380    -0.0450 h1         1 ZYC       0.043367
     22 HABB        -3.5910    -2.7200    -0.9360 h1         1 ZYC       0.043367
     23 HOAD        -5.1840     0.9870    -0.0700 ho         1 ZYC       0.485000
     24 HAE          1.8830     1.2960    -0.0310 ha         1 ZYC       0.198000
     25 HAF          0.6690    -1.5140    -0.0400 ha         1 ZYC       0.190000
     26 HAG         -0.0890     2.2320    -0.0500 ha         1 ZYC       0.121000
     27 HAH         -2.3710     3.1080    -0.0630 ha         1 ZYC       0.134000
     28 HAI         -1.6240    -1.7700    -0.0480 ha         1 ZYC       0.121000
     29 HAJ          5.5560    -0.9380    -0.8710 h1         1 ZYC       0.047200
     30 HAJA         5.5520    -0.9270     0.8900 h1         1 ZYC       0.047200
@<TRIPOS>BOND
     1     1    10 1   
     2     1    17 1   
     3     1    18 1   
     4     1    19 1   
     5     2    11 1   
     6     2    20 1   
     7     2    21 1   
     8     2    22 1   
     9     3    13 2   
    10     4    15 1   
    11     4    23 1   
    12     5     6 2   
    13     5    13 1   
    14     5    24 1   
    15     6    14 1   
    16     6    25 1   
    17     7     8 ar  
    18     7    14 ar  
    19     7    26 1   
    20     8    15 ar  
    21     8    27 1   
    22     9    14 ar  
    23     9    16 ar  
    24     9    28 1   
    25    10    12 1   
    26    10    29 1   
    27    10    30 1   
    28    11    16 1   
    29    12    13 1   
    30    15    16 ar  
@<TRIPOS>SUBSTRUCTURE
     1 ZYC         1 TEMP              0 ****  ****    0 ROOT
