@<TRIPOS>MOLECULE
ZYE
   79    83     1     0     0
SMALL
No Charge or Current Charge


@<TRIPOS>ATOM
      1 C1           4.1100    -0.9340    -1.0370 ca         1 ZYE      -0.058200
      2 C2           2.8510    -0.3170    -1.0460 ca         1 ZYE      -0.094000
      3 C3           2.3010     0.1120     0.1900 ca         1 ZYE      -0.125600
      4 C4           3.0610    -0.0600     1.3800 ca         1 ZYE      -0.083000
      5 C5           4.3720    -0.5930     1.3600 ca         1 ZYE      -0.003000
      6 C6           4.8210    -1.0970     0.1230 ca         1 ZYE      -0.075800
      7 C7           0.9300     0.7510     0.2720 c          1 ZYE       0.624700
      8 N8           0.1580     0.6740    -0.8660 ns         1 ZYE      -0.497900
      9 O9           0.5350     1.3310     1.2750 o          1 ZYE      -0.604100
     10 C10         -1.1430     1.3310    -1.0630 c3         1 ZYE       0.083700
     11 C11         -1.4550     1.4280    -2.5840 c3         1 ZYE      -0.048100
     12 C12         -2.2760     0.6730    -0.2070 c3         1 ZYE       0.144300
     13 O13         -2.4380    -0.7260    -0.5470 oh         1 ZYE      -0.655000
     14 C14         -0.2460     1.8420    -3.4210 ca         1 ZYE      -0.077300
     15 C15         -3.6410     1.4140    -0.3200 c3         1 ZYE       0.128800
     16 N16         -4.6420     0.8350     0.6010 n7         1 ZYE      -0.855400
     17 C17         -6.0130     1.3560     0.4530 c3         1 ZYE       0.204100
     18 C18          0.3160     0.9440    -4.3510 ca         1 ZYE      -0.102000
     19 C19          1.4420     1.3160    -5.1050 ca         1 ZYE      -0.106500
     20 C20          2.0160     2.5870    -4.9320 ca         1 ZYE      -0.106000
     21 C21          1.4600     3.4860    -4.0080 ca         1 ZYE      -0.106500
     22 C22          0.3320     3.1160    -3.2550 ca         1 ZYE      -0.102000
     23 N23          4.8160    -1.5090    -2.0910 na         1 ZYE      -0.086700
     24 C24          6.8330    -1.7340     3.8740 c5         1 ZYE      -0.091400
     25 C25          5.5270    -1.7320     4.7080 c5         1 ZYE      -0.169400
     26 C26          4.4460    -1.6350     3.6330 c          1 ZYE       0.567000
     27 N27          5.0370    -0.8940     2.5990 n          1 ZYE      -0.249400
     28 C28          6.4830    -0.6500     2.8090 c5         1 ZYE       0.106000
     29 C30          5.9950    -2.1160    -1.6230 cc         1 ZYE      -0.153100
     30 C31          5.9880    -1.8630    -0.2590 cd         1 ZYE      -0.238200
     31 C33          4.3520    -1.4440    -3.4880 c3         1 ZYE       0.078600
     32 C34         -8.5980    -1.1090     1.8670 ca         1 ZYE       0.136100
     33 C35         -8.7260    -0.6470     3.1950 ca         1 ZYE      -0.194000
     34 C36         -7.9730     0.4590     3.6280 ca         1 ZYE      -0.078000
     35 C37         -7.0950     1.1050     2.7420 ca         1 ZYE      -0.121000
     36 C38         -6.9630     0.6520     1.4150 ca         1 ZYE      -0.057300
     37 C39         -7.7190    -0.4570     0.9870 ca         1 ZYE      -0.144000
     38 C41        -10.2360    -2.9250     2.2040 c3         1 ZYE       0.149900
     39 H2           2.3140    -0.1960    -1.9830 ha         1 ZYE       0.114000
     40 H4           2.6370     0.2480     2.3320 ha         1 ZYE       0.141000
     41 H31          6.7490    -2.2380     0.4190 ha         1 ZYE       0.210000
     42 H8           0.5560     0.1710    -1.6460 hn         1 ZYE       0.322500
     43 H10         -1.0290     2.3620    -0.6980 h1         1 ZYE       0.092700
     44 H111        -1.8340     0.4630    -2.9400 hc         1 ZYE       0.047200
     45 H112        -2.2680     2.1480    -2.7410 hc         1 ZYE       0.047200
     46 H12         -1.9690     0.7540     0.8450 h1         1 ZYE       0.105700
     47 H13         -2.6720    -0.7690    -1.4980 ho         1 ZYE       0.432000
     48 H151        -3.4900     2.4790    -0.0930 h1         1 ZYE       0.033700
     49 H152        -4.0000     1.3450    -1.3560 h1         1 ZYE       0.033700
     50 H18         -0.1160    -0.0440    -4.4910 ha         1 ZYE       0.107000
     51 H22         -0.0900     3.8190    -2.5410 ha         1 ZYE       0.107000
     52 H16         -4.6680    -0.1780     0.4310 hn         1 ZYE       0.422000
     53 H171        -6.0350     2.4370     0.6530 h1         1 ZYE       0.037200
     54 H172        -6.3700     1.2080    -0.5750 h1         1 ZYE       0.037200
     55 H19          1.8700     0.6190    -5.8220 ha         1 ZYE       0.111000
     56 H20          2.8890     2.8730    -5.5140 ha         1 ZYE       0.113000
     57 H21          1.9040     4.4710    -3.8730 ha         1 ZYE       0.111000
     58 H30          6.6920    -2.6520    -2.2610 h4         1 ZYE       0.211000
     59 H331         4.8430    -2.2450    -4.0550 h1         1 ZYE       0.056700
     60 H332         3.2720    -1.6350    -3.5190 h1         1 ZYE       0.056700
     61 H251         5.3780    -2.5990     5.3590 hc         1 ZYE       0.076200
     62 H252         5.5010    -0.8110     5.3010 hc         1 ZYE       0.076200
     63 H321         4.1590     0.7280    -3.6320 hc         1 ZYE       0.047700
     64 H322         5.7390     0.1020    -4.1560 hc         1 ZYE       0.047700
     65 H323         4.3150    -0.0950    -5.2000 hc         1 ZYE       0.047700
     66 H35         -9.3970    -1.1280     3.9000 ha         1 ZYE       0.116000
     67 H39         -7.6240    -0.8170    -0.0340 ha         1 ZYE       0.122000
     68 H36         -8.0690     0.8150     4.6520 ha         1 ZYE       0.112000
     69 H37         -6.5140     1.9580     3.0850 ha         1 ZYE       0.132000
     70 H411        -9.7260    -3.3660     3.0700 h1         1 ZYE       0.039700
     71 H412       -11.0420    -2.2730     2.5640 h1         1 ZYE       0.039700
     72 H413       -10.6910    -3.7390     1.6260 h1         1 ZYE       0.039700
     73 H241         7.7240    -1.4820     4.4610 hc         1 ZYE       0.055200
     74 H242         7.0040    -2.7100     3.4040 hc         1 ZYE       0.055200
     75 H281         6.6350     0.3600     3.2100 h1         1 ZYE       0.050700
     76 H282         7.0860    -0.7390     1.9000 h1         1 ZYE       0.050700
     77 O29          3.3920    -2.2520     3.5500 o          1 ZYE      -0.534000
     78 O40         -9.3100    -2.1890     1.3850 os         1 ZYE      -0.345100
     79 C32          4.6600    -0.0920    -4.1600 c3         1 ZYE      -0.118100
@<TRIPOS>BOND
     1     1     2 ar  
     2     1     6 ar  
     3     1    23 1   
     4     2     3 ar  
     5     2    39 1   
     6     3     4 ar  
     7     3     7 1   
     8     4     5 ar  
     9     4    40 1   
    10     5     6 ar  
    11     5    27 1   
    12     6    30 1   
    13     7     8 1   
    14     7     9 2   
    15     8    10 1   
    16     8    42 1   
    17    10    11 1   
    18    10    12 1   
    19    10    43 1   
    20    11    14 1   
    21    11    44 1   
    22    11    45 1   
    23    12    13 1   
    24    12    15 1   
    25    12    46 1   
    26    13    47 1   
    27    14    18 ar  
    28    14    22 ar  
    29    15    16 1   
    30    15    48 1   
    31    15    49 1   
    32    16    17 1   
    33    16    52 1   
    34    17    36 1   
    35    17    53 1   
    36    17    54 1   
    37    18    19 ar  
    38    18    50 1   
    39    19    20 ar  
    40    19    55 1   
    41    20    21 ar  
    42    20    56 1   
    43    21    22 ar  
    44    21    57 1   
    45    22    51 1   
    46    23    29 1   
    47    23    31 1   
    48    24    25 1   
    49    24    28 1   
    50    24    73 1   
    51    24    74 1   
    52    25    26 1   
    53    25    61 1   
    54    25    62 1   
    55    26    27 1   
    56    26    77 2   
    57    27    28 1   
    58    28    75 1   
    59    28    76 1   
    60    29    30 2   
    61    29    58 1   
    62    30    41 1   
    63    31    59 1   
    64    31    60 1   
    65    31    79 1   
    66    32    33 ar  
    67    32    37 ar  
    68    32    78 1   
    69    33    34 ar  
    70    33    66 1   
    71    34    35 ar  
    72    34    68 1   
    73    35    36 ar  
    74    35    69 1   
    75    36    37 ar  
    76    37    67 1   
    77    38    70 1   
    78    38    71 1   
    79    38    72 1   
    80    38    78 1   
    81    63    79 1   
    82    64    79 1   
    83    65    79 1   
@<TRIPOS>SUBSTRUCTURE
     1 ZYE         1 TEMP              0 ****  ****    0 ROOT
