@<TRIPOS>MOLECULE
ZYE
   79    83     1     0     0
SMALL
bcc


@<TRIPOS>ATOM
      1 C1           3.9850    -1.4530    -1.0820 ca         1 ZYE      -0.058200
      2 C2           2.7790    -0.7610    -1.1040 ca         1 ZYE      -0.112000
      3 C3           2.4350    -0.0240     0.0180 ca         1 ZYE      -0.125600
      4 C4           3.2920     0.0260     1.1320 ca         1 ZYE      -0.101000
      5 C5           4.4770    -0.6760     1.1560 ca         1 ZYE       0.089600
      6 C6           4.8480    -1.4310     0.0360 ca         1 ZYE      -0.075800
      7 C7           1.1870     0.7950     0.0610 c          1 ZYE       0.691700
      8 N8           0.1440     0.2970    -0.6270 ns         1 ZYE      -0.564900
      9 O9           1.1400     1.8410     0.6950 o          1 ZYE      -0.604100
     10 C10         -1.1000     0.9990    -0.8440 c3         1 ZYE       0.083700
     11 C11         -1.2700     1.3280    -2.3350 c3         1 ZYE      -0.048100
     12 C12         -2.2590     0.1860    -0.2500 c3         1 ZYE       0.121100
     13 O13         -2.3050    -1.1280    -0.7720 oh         1 ZYE      -0.592800
     14 C14         -0.0870     2.0770    -2.8800 ca         1 ZYE      -0.077300
     15 C15         -3.5980     0.8980    -0.3780 c3         1 ZYE       0.128800
     16 N16         -4.6050     0.2540     0.4420 n7         1 ZYE      -0.800200
     17 C17         -5.8980     0.9020     0.3440 c3         1 ZYE       0.204100
     18 C18          0.8650     1.4390    -3.6690 ca         1 ZYE      -0.120000
     19 C19          1.9750     2.1260    -4.1440 ca         1 ZYE      -0.124500
     20 C20          2.1490     3.4680    -3.8340 ca         1 ZYE      -0.124000
     21 C21          1.2030     4.1160    -3.0490 ca         1 ZYE      -0.124500
     22 C22          0.0970     3.4240    -2.5780 ca         1 ZYE      -0.120000
     23 N23          4.5560    -2.2510    -2.0340 na         1 ZYE      -0.057400
     24 C24          7.2320    -0.2660     3.5800 c5         1 ZYE      -0.091400
     25 C25          6.1100    -0.8260     4.4500 c5         1 ZYE      -0.169400
     26 C26          5.0330    -1.2200     3.4630 c          1 ZYE       0.709500
     27 N27          5.3280    -0.6310     2.2800 n          1 ZYE      -0.409000
     28 C28          6.5140     0.2130     2.3180 c5         1 ZYE       0.106000
     29 C30          5.7440    -2.7180    -1.5520 cc         1 ZYE      -0.103100
     30 C31          5.9660    -2.2490    -0.2860 cd         1 ZYE      -0.188200
     31 C33          4.0230    -2.4960    -3.3600 c3         1 ZYE       0.049300
     32 C34         -9.1450    -0.6470     1.5710 ca         1 ZYE       0.136100
     33 C35         -8.8360    -0.9420     2.8940 ca         1 ZYE      -0.212000
     34 C36         -7.5640    -0.6430     3.3750 ca         1 ZYE      -0.096000
     35 C37         -6.6070    -0.0590     2.5640 ca         1 ZYE      -0.139000
     36 C38         -6.9160     0.2410     1.2360 ca         1 ZYE      -0.057300
     37 C39         -8.1780    -0.0580     0.7500 ca         1 ZYE      -0.162000
     38 C41        -11.3450    -1.5130     1.7650 c3         1 ZYE       0.126700
     39 H2           2.1490    -0.7760    -1.9840 ha         1 ZYE       0.132000
     40 H4           3.0140     0.6280     1.9880 ha         1 ZYE       0.159000
     41 H31          6.8180    -2.4710     0.3360 ha         1 ZYE       0.160000
     42 H8           0.2170    -0.6300    -1.0150 hn         1 ZYE       0.322500
     43 H10         -1.0440     1.9320    -0.2830 h1         1 ZYE       0.092700
     44 H111        -1.4130     0.4080    -2.9100 hc         1 ZYE       0.047200
     45 H112        -2.1760     1.9250    -2.4640 hc         1 ZYE       0.047200
     46 H12         -2.0490     0.0670     0.8170 h1         1 ZYE       0.105700
     47 H13         -2.6430    -1.0950    -1.6740 ho         1 ZYE       0.393000
     48 H151        -3.4800     1.9310    -0.0360 h1         1 ZYE       0.033700
     49 H152        -3.8950     0.9570    -1.4390 h1         1 ZYE       0.033700
     50 H18          0.7310     0.3940    -3.9250 ha         1 ZYE       0.125000
     51 H22         -0.6360     3.9420    -1.9690 ha         1 ZYE       0.125000
     52 H16         -4.7010    -0.7120     0.1500 hn         1 ZYE       0.366800
     53 H171        -5.7740     1.9440     0.6570 h1         1 ZYE       0.037200
     54 H172        -6.2840     0.9390    -0.6860 h1         1 ZYE       0.037200
     55 H19          2.7030     1.6140    -4.7620 ha         1 ZYE       0.129000
     56 H20          3.0110     4.0060    -4.2060 ha         1 ZYE       0.131000
     57 H21          1.3270     5.1630    -2.8060 ha         1 ZYE       0.129000
     58 H30          6.3540    -3.3710    -2.1560 h4         1 ZYE       0.161000
     59 H331         4.4760    -3.4140    -3.7310 h1         1 ZYE       0.056700
     60 H332         2.9530    -2.6900    -3.2720 h1         1 ZYE       0.056700
     61 H251         6.4060    -1.6730     5.0670 hc         1 ZYE       0.076200
     62 H252         5.6910    -0.0670     5.1170 hc         1 ZYE       0.076200
     63 H321         3.8400    -0.4180    -3.9730 hc         1 ZYE       0.047700
     64 H322         5.3520    -1.1860    -4.4590 hc         1 ZYE       0.047700
     65 H323         3.8490    -1.5810    -5.2960 hc         1 ZYE       0.047700
     66 H35         -9.5570    -1.4010     3.5570 ha         1 ZYE       0.134000
     67 H39         -8.4300     0.1620    -0.2820 ha         1 ZYE       0.140000
     68 H36         -7.3280    -0.8750     4.4060 ha         1 ZYE       0.130000
     69 H37         -5.6210     0.1600     2.9530 ha         1 ZYE       0.150000
     70 H411       -11.0410    -2.5020     2.1190 h1         1 ZYE       0.039700
     71 H412       -11.6320    -0.9050     2.6270 h1         1 ZYE       0.039700
     72 H413       -12.2100    -1.6250     1.1150 h1         1 ZYE       0.039700
     73 H241         7.7870     0.5360     4.0610 hc         1 ZYE       0.055200
     74 H242         7.9400    -1.0570     3.3290 hc         1 ZYE       0.055200
     75 H281         6.2250     1.2660     2.3820 h1         1 ZYE       0.050700
     76 H282         7.1150     0.0850     1.4180 h1         1 ZYE       0.050700
     77 O29          4.0610    -1.9190     3.6790 o          1 ZYE      -0.609500
     78 O40        -10.3370    -0.8950     0.9920 os         1 ZYE      -0.321900
     79 C32          4.2830    -1.3510    -4.3240 c3         1 ZYE      -0.118100
@<TRIPOS>BOND
     1     1     2 ar  
     2     1     6 ar  
     3     1    23 1   
     4     2     3 ar  
     5     2    39 1   
     6     3     4 ar  
     7     3     7 1   
     8     4     5 ar  
     9     4    40 1   
    10     5     6 ar  
    11     5    27 1   
    12     6    30 1   
    13     7     8 1   
    14     7     9 2   
    15     8    10 1   
    16     8    42 1   
    17    10    11 1   
    18    10    12 1   
    19    10    43 1   
    20    11    14 1   
    21    11    44 1   
    22    11    45 1   
    23    12    13 1   
    24    12    15 1   
    25    12    46 1   
    26    13    47 1   
    27    14    18 ar  
    28    14    22 ar  
    29    15    16 1   
    30    15    48 1   
    31    15    49 1   
    32    16    17 1   
    33    16    52 1   
    34    17    36 1   
    35    17    53 1   
    36    17    54 1   
    37    18    19 ar  
    38    18    50 1   
    39    19    20 ar  
    40    19    55 1   
    41    20    21 ar  
    42    20    56 1   
    43    21    22 ar  
    44    21    57 1   
    45    22    51 1   
    46    23    29 1   
    47    23    31 1   
    48    24    25 1   
    49    24    28 1   
    50    24    73 1   
    51    24    74 1   
    52    25    26 1   
    53    25    61 1   
    54    25    62 1   
    55    26    27 1   
    56    26    77 2   
    57    27    28 1   
    58    28    75 1   
    59    28    76 1   
    60    29    30 2   
    61    29    58 1   
    62    30    41 1   
    63    31    59 1   
    64    31    60 1   
    65    31    79 1   
    66    32    33 ar  
    67    32    37 ar  
    68    32    78 1   
    69    33    34 ar  
    70    33    66 1   
    71    34    35 ar  
    72    34    68 1   
    73    35    36 ar  
    74    35    69 1   
    75    36    37 ar  
    76    37    67 1   
    77    38    70 1   
    78    38    71 1   
    79    38    72 1   
    80    38    78 1   
    81    63    79 1   
    82    64    79 1   
    83    65    79 1   
@<TRIPOS>SUBSTRUCTURE
     1 ZYE         1 TEMP              0 ****  ****    0 ROOT
