@<TRIPOS>MOLECULE
ZYF
  106   108     1     0     0
SMALL
abcg2


@<TRIPOS>ATOM
      1 O2           8.9700     0.4250     0.1930 oh         1 ZYF      -0.547100
      2 C3           9.3540    -0.7290     0.7330 ca         1 ZYF       0.225100
      3 C4          10.4580    -0.7260     1.5880 ca         1 ZYF      -0.180000
      4 C5          10.8900    -1.9010     2.1730 ca         1 ZYF      -0.043000
      5 C6          10.2390    -3.1070     1.9250 ca         1 ZYF      -0.179000
      6 C7           9.1470    -3.1230     1.0810 ca         1 ZYF      -0.018000
      7 C8           8.6920    -1.9470     0.4760 ca         1 ZYF      -0.262900
      8 C10          7.5410    -1.9470    -0.4110 ce         1 ZYF       0.696200
      9 N11          7.1200    -0.9120    -1.0300 n2         1 ZYF      -0.706900
     10 C12          5.9160    -1.2870    -1.7440 c5         1 ZYF       0.017500
     11 C13          5.8760    -2.8210    -1.5920 c5         1 ZYF       0.127600
     12 O14          6.8830    -3.0890    -0.6030 os         1 ZYF      -0.431600
     13 C15          4.7130    -0.6340    -1.0620 c          1 ZYF       0.612100
     14 O16          4.5890    -0.7050     0.1470 o          1 ZYF      -0.553100
     15 N17          3.8380    -0.0680    -1.9060 ns         1 ZYF      -0.495900
     16 C18          2.6180     0.6190    -1.5490 c3         1 ZYF       0.069700
     17 C19          2.9300     2.0050    -1.0020 c          1 ZYF       0.580100
     18 O20          3.9770     2.3190    -0.5000 o          1 ZYF      -0.466000
     19 O21          1.8910     2.8120    -1.1420 os         1 ZYF      -0.451100
     20 C22          1.9370     4.1190    -0.5310 c3         1 ZYF       0.192300
     21 C25          0.4940     4.5270    -0.3030 c3         1 ZYF      -0.165400
     22 C27         -0.2770     3.5070     0.5080 c          1 ZYF       0.603100
     23 O28          0.2520     2.8020     1.3510 o          1 ZYF      -0.582100
     24 N29         -1.5960     3.4510     0.2350 ns         1 ZYF      -0.507900
     25 C30         -2.4950     2.5350     0.9010 c3         1 ZYF       0.043700
     26 C31         -3.9520     2.9790     0.7520 c3         1 ZYF      -0.087400
     27 C32         -4.4370     3.2820    -0.6600 c3         1 ZYF      -0.079400
     28 C33         -4.3330     2.1240    -1.6410 c3         1 ZYF      -0.101400
     29 C34         -2.9190     1.6090    -1.8770 c3         1 ZYF       0.125000
     30 N35         -2.4060     0.7670    -0.8090 n          1 ZYF      -0.276300
     31 O36         -1.9540    -0.4530    -1.2360 oh         1 ZYF      -0.477100
     32 C37         -2.2260     1.0830     0.4850 c          1 ZYF       0.553000
     33 O38         -1.8730     0.2590     1.3160 o          1 ZYF      -0.553000
     34 C39          1.7080    -0.1530    -0.5820 c3         1 ZYF      -0.082400
     35 C40          1.2920    -1.5160    -1.1210 c3         1 ZYF      -0.059400
     36 C41          0.4790    -2.2980    -0.0950 c3         1 ZYF      -0.105400
     37 C42         -0.2990    -3.4360    -0.7460 c3         1 ZYF       0.101000
     38 N43         -1.2020    -4.1120     0.1630 n          1 ZYF      -0.277300
     39 O44         -0.5970    -4.9230     1.0890 oh         1 ZYF      -0.431100
     40 C45         -2.4610    -3.7010     0.4240 c          1 ZYF       0.630300
     41 O46         -2.9820    -2.7880    -0.2180 o          1 ZYF      -0.615100
     42 C47         -3.1990    -4.4450     1.4700 ce         1 ZYF      -0.299200
     43 C48         -4.0840    -3.8690     2.2870 c2         1 ZYF      -0.115200
     44 C49         -4.4420    -2.4220     2.3820 c3         1 ZYF      -0.063200
     45 C50         -5.7590    -2.0950     1.6710 c3         1 ZYF      -0.064400
     46 C51         -6.0250    -0.5960     1.6620 c3         1 ZYF      -0.076400
     47 C52         -7.3860    -0.2040     1.1030 c3         1 ZYF      -0.075400
     48 C53         -7.5230     1.3020     0.9190 c3         1 ZYF      -0.080400
     49 O53        -10.3430     5.0450    -0.4850 o          1 ZYF      -0.742000
     50 C54         -8.9050     1.7560     0.4690 c3         1 ZYF      -0.055400
     51 O54        -11.2830     3.0330    -0.3210 o          1 ZYF      -0.742000
     52 C55         -8.9660     3.2550     0.2250 c3         1 ZYF      -0.203400
     53 C56          2.6620     5.1060    -1.4250 c3         1 ZYF      -0.118100
     54 C57        -10.3200     3.8200    -0.2350 c          1 ZYF       0.717000
     55 HO2          8.1830     0.2570    -0.3900 ho         1 ZYF       0.531000
     56 H4          10.9680     0.2090     1.7840 ha         1 ZYF       0.130000
     57 H5          11.7490    -1.8770     2.8320 ha         1 ZYF       0.111000
     58 H6          10.5820    -4.0220     2.3880 ha         1 ZYF       0.116000
     59 H7           8.6390    -4.0570     0.8850 ha         1 ZYF       0.124000
     60 H12          5.9860    -0.9940    -2.7940 h1         1 ZYF       0.078700
     61 H13          4.9250    -3.2170    -1.2370 h1         1 ZYF       0.070700
     62 H13A         6.1490    -3.3300    -2.5160 h1         1 ZYF       0.070700
     63 HN17         4.0890    -0.0390    -2.8810 hn         1 ZYF       0.309500
     64 H18          2.0680     0.7460    -2.4840 h1         1 ZYF       0.069700
     65 H22          2.4500     4.0400     0.4280 h1         1 ZYF       0.085700
     66 H25          0.4940     5.4730     0.2460 hc         1 ZYF       0.065700
     67 H25A        -0.0020     4.7260    -1.2560 hc         1 ZYF       0.065700
     68 HN29        -1.9710     4.0880    -0.4490 hn         1 ZYF       0.317500
     69 H30         -2.2670     2.5440     1.9680 h1         1 ZYF       0.093700
     70 H31         -4.5800     2.2050     1.2000 hc         1 ZYF       0.064700
     71 H31A        -4.0860     3.8700     1.3690 hc         1 ZYF       0.064700
     72 H32         -5.4810     3.5990    -0.5930 hc         1 ZYF       0.050700
     73 H32A        -3.9080     4.1490    -1.0710 hc         1 ZYF       0.050700
     74 H33         -4.9630     1.2900    -1.3170 hc         1 ZYF       0.063200
     75 H33A        -4.7270     2.4510    -2.6060 hc         1 ZYF       0.063200
     76 H34         -2.9190     0.9810    -2.7640 h1         1 ZYF       0.048200
     77 H34A        -2.2310     2.4340    -2.0870 h1         1 ZYF       0.048200
     78 HO36        -2.4250    -1.1620    -0.7500 ho         1 ZYF       0.490000
     79 H39          2.1920    -0.2570     0.3880 hc         1 ZYF       0.085700
     80 H39A         0.8080     0.4420    -0.4230 hc         1 ZYF       0.085700
     81 H40          0.6940    -1.3640    -2.0250 hc         1 ZYF       0.029700
     82 H40A         2.1660    -2.1010    -1.4260 hc         1 ZYF       0.029700
     83 H41          1.1390    -2.6980     0.6780 hc         1 ZYF       0.070700
     84 H41A        -0.2230    -1.6250     0.4010 hc         1 ZYF       0.070700
     85 H42         -0.8910    -3.0630    -1.5810 h1         1 ZYF       0.055700
     86 H42A         0.3770    -4.1870    -1.1610 h1         1 ZYF       0.055700
     87 HO44        -0.5470    -5.8000     0.6860 ho         1 ZYF       0.437000
     88 H47         -3.0190    -5.5080     1.5600 ha         1 ZYF       0.181000
     89 H48         -4.6010    -4.5270     2.9790 ha         1 ZYF       0.164000
     90 H49         -4.5470    -2.1660     3.4400 hc         1 ZYF       0.061700
     91 H49A        -3.6510    -1.7910     1.9790 hc         1 ZYF       0.061700
     92 H50         -5.7130    -2.4620     0.6430 hc         1 ZYF       0.040700
     93 H50A        -6.5850    -2.6220     2.1580 hc         1 ZYF       0.040700
     94 H51         -5.9290    -0.2040     2.6810 hc         1 ZYF       0.033200
     95 H51A        -5.2350    -0.1090     1.0780 hc         1 ZYF       0.033200
     96 H52         -7.5500    -0.7000     0.1400 hc         1 ZYF       0.036200
     97 H52A        -8.1730    -0.5710     1.7700 hc         1 ZYF       0.036200
     98 H53         -7.2560     1.8110     1.8520 hc         1 ZYF       0.019200
     99 H53A        -6.7840     1.6320     0.1810 hc         1 ZYF       0.019200
    100 H54         -9.1830     1.2200    -0.4440 hc         1 ZYF       0.040700
    101 H54A        -9.6450     1.4700     1.2220 hc         1 ZYF       0.040700
    102 H55         -8.6680     3.7870     1.1370 hc         1 ZYF       0.010200
    103 H55A        -8.2070     3.5350    -0.5170 hc         1 ZYF       0.010200
    104 H56          2.6760     6.0870    -0.9480 hc         1 ZYF       0.047033
    105 H56A         3.6950     4.8090    -1.5970 hc         1 ZYF       0.047033
    106 H56B         2.1620     5.2090    -2.3890 hc         1 ZYF       0.047033
@<TRIPOS>BOND
     1     1     2 1   
     2     1    55 1   
     3     2     3 ar  
     4     2     7 ar  
     5     3     4 ar  
     6     3    56 1   
     7     4     5 ar  
     8     4    57 1   
     9     5     6 ar  
    10     5    58 1   
    11     6     7 ar  
    12     6    59 1   
    13     7     8 1   
    14     8     9 2   
    15     8    12 1   
    16     9    10 1   
    17    10    11 1   
    18    10    13 1   
    19    10    60 1   
    20    11    12 1   
    21    11    61 1   
    22    11    62 1   
    23    13    14 2   
    24    13    15 1   
    25    15    16 1   
    26    15    63 1   
    27    16    17 1   
    28    16    34 1   
    29    16    64 1   
    30    17    18 2   
    31    17    19 1   
    32    19    20 1   
    33    20    21 1   
    34    20    53 1   
    35    20    65 1   
    36    21    22 1   
    37    21    66 1   
    38    21    67 1   
    39    22    23 2   
    40    22    24 1   
    41    24    25 1   
    42    24    68 1   
    43    25    26 1   
    44    25    32 1   
    45    25    69 1   
    46    26    27 1   
    47    26    70 1   
    48    26    71 1   
    49    27    28 1   
    50    27    72 1   
    51    27    73 1   
    52    28    29 1   
    53    28    74 1   
    54    28    75 1   
    55    29    30 1   
    56    29    76 1   
    57    29    77 1   
    58    30    31 1   
    59    30    32 1   
    60    31    78 1   
    61    32    33 2   
    62    34    35 1   
    63    34    79 1   
    64    34    80 1   
    65    35    36 1   
    66    35    81 1   
    67    35    82 1   
    68    36    37 1   
    69    36    83 1   
    70    36    84 1   
    71    37    38 1   
    72    37    85 1   
    73    37    86 1   
    74    38    39 1   
    75    38    40 1   
    76    39    87 1   
    77    40    41 2   
    78    40    42 1   
    79    42    43 2   
    80    42    88 1   
    81    43    44 1   
    82    43    89 1   
    83    44    45 1   
    84    44    90 1   
    85    44    91 1   
    86    45    46 1   
    87    45    92 1   
    88    45    93 1   
    89    46    47 1   
    90    46    94 1   
    91    46    95 1   
    92    47    48 1   
    93    47    96 1   
    94    47    97 1   
    95    48    50 1   
    96    48    98 1   
    97    48    99 1   
    98    49    54 1   
    99    50    52 1   
   100    50   100 1   
   101    50   101 1   
   102    51    54 1   
   103    52    54 1   
   104    52   102 1   
   105    52   103 1   
   106    53   104 1   
   107    53   105 1   
   108    53   106 1   
@<TRIPOS>SUBSTRUCTURE
     1 ZYF         1 TEMP              0 ****  ****    0 ROOT
