@<TRIPOS>MOLECULE
ZYF
  106   108     1     0     0
SMALL
No Charge or Current Charge


@<TRIPOS>ATOM
      1 O2           9.5650     0.3980    -0.6570 oh         1 ZYF      -0.547100
      2 C3           9.8880    -0.7560    -0.0120 ca         1 ZYF       0.225100
      3 C4          11.1200    -0.8260     0.6550 ca         1 ZYF      -0.180000
      4 C5          11.4950    -1.9960     1.3330 ca         1 ZYF      -0.043000
      5 C6          10.6300    -3.0990     1.3400 ca         1 ZYF      -0.179000
      6 C7           9.3950    -3.0360     0.6730 ca         1 ZYF      -0.018000
      7 C8           9.0080    -1.8620    -0.0130 ca         1 ZYF      -0.262900
      8 C10          7.6900    -1.8180    -0.7140 ce         1 ZYF       0.696200
      9 N11          7.2540    -0.7760    -1.3560 n2         1 ZYF      -0.706900
     10 C12          5.8520    -1.1210    -1.7620 c5         1 ZYF       0.017500
     11 C13          5.8570    -2.6630    -1.6710 c5         1 ZYF       0.127600
     12 O14          6.8720    -2.9250    -0.6860 os         1 ZYF      -0.431600
     13 C15          4.7560    -0.5700    -0.7830 c          1 ZYF       0.612100
     14 O16          4.7550    -0.6490     0.4380 o          1 ZYF      -0.553100
     15 N17          3.7590     0.0510    -1.5190 ns         1 ZYF      -0.495900
     16 C18          2.5220     0.6680    -0.9760 c3         1 ZYF       0.069700
     17 C19          2.7960     2.0610    -0.3360 c          1 ZYF       0.580100
     18 O20          3.8340     2.3700     0.2360 o          1 ZYF      -0.466000
     19 O21          1.7470     2.9260    -0.5540 os         1 ZYF      -0.451100
     20 C22          1.8550     4.2970    -0.1200 c3         1 ZYF       0.192300
     21 C25          0.4330     4.8890    -0.1470 c3         1 ZYF      -0.165400
     22 C27         -0.4730     4.1800     0.8540 c          1 ZYF       0.603100
     23 O28         -0.4120     4.3860     2.0570 o          1 ZYF      -0.582100
     24 N29         -1.3830     3.3130     0.2940 ns         1 ZYF      -0.507900
     25 C30         -2.3390     2.4730     1.0520 c3         1 ZYF       0.043700
     26 C31         -3.7910     3.0160     0.9930 c3         1 ZYF      -0.087400
     27 C32         -4.3640     3.3210    -0.4130 c3         1 ZYF      -0.079400
     28 C33         -4.4640     2.1080    -1.3640 c3         1 ZYF      -0.101400
     29 C34         -3.0990     1.4980    -1.7230 c3         1 ZYF       0.125000
     30 N35         -2.5690     0.5840    -0.6920 n          1 ZYF      -0.276300
     31 O36         -2.1140    -0.6880    -1.1970 oh         1 ZYF      -0.477100
     32 C37         -2.2030     0.9850     0.6260 c          1 ZYF       0.553000
     33 O38         -1.7580     0.1650     1.4210 o          1 ZYF      -0.553000
     34 C39          1.6970    -0.2600    -0.0440 c3         1 ZYF      -0.082400
     35 C40          1.2580    -1.5920    -0.7030 c3         1 ZYF      -0.059400
     36 C41          0.4270    -2.4840     0.2470 c3         1 ZYF      -0.105400
     37 C42         -0.3400    -3.6140    -0.4700 c3         1 ZYF       0.101000
     38 N43         -1.3110    -4.2840     0.4230 n          1 ZYF      -0.277300
     39 O44         -0.7890    -5.3790     1.2080 oh         1 ZYF      -0.431100
     40 C45         -2.6560    -3.8380     0.5710 c          1 ZYF       0.630300
     41 O46         -3.0650    -2.8610    -0.0450 o          1 ZYF      -0.615100
     42 C47         -3.5110    -4.5400     1.5790 ce         1 ZYF      -0.299200
     43 C48         -4.4090    -3.9530     2.4100 c2         1 ZYF      -0.115200
     44 C49         -4.7670    -2.4800     2.5000 c3         1 ZYF      -0.063200
     45 C50         -5.9150    -2.0730     1.5520 c3         1 ZYF      -0.064400
     46 C51         -6.2580    -0.5700     1.6440 c3         1 ZYF      -0.076400
     47 C52         -7.3620    -0.1330     0.6580 c3         1 ZYF      -0.075400
     48 C53         -7.7400     1.3580     0.8010 c3         1 ZYF      -0.080400
     49 O53         -9.7550     4.0950    -2.2820 o          1 ZYF      -0.742000
     50 C54         -8.7680     1.8270    -0.2520 c3         1 ZYF      -0.055400
     51 O54        -11.3490     3.5940    -0.9240 o          1 ZYF      -0.742000
     52 C55         -9.1290     3.3270    -0.1220 c3         1 ZYF      -0.203400
     53 C56          2.8000     5.0460    -1.0890 c3         1 ZYF      -0.118100
     54 C57        -10.1640     3.7200    -1.1940 c          1 ZYF       0.717000
     55 HO2          8.6670     0.2420    -1.0550 ho         1 ZYF       0.531000
     56 H4          11.7880     0.0320     0.6470 ha         1 ZYF       0.130000
     57 H5          12.4520    -2.0460     1.8500 ha         1 ZYF       0.111000
     58 H6          10.9160    -4.0080     1.8640 ha         1 ZYF       0.116000
     59 H7           8.7420    -3.9070     0.6950 ha         1 ZYF       0.124000
     60 H12          5.6440    -0.7830    -2.7860 h1         1 ZYF       0.078700
     61 H13          4.8960    -3.1000    -1.3660 h1         1 ZYF       0.070700
     62 H13A         6.1680    -3.1140    -2.6240 h1         1 ZYF       0.070700
     63 HN17         3.8910     0.0710    -2.5230 hn         1 ZYF       0.309500
     64 H18          1.8840     0.8780    -1.8450 h1         1 ZYF       0.069700
     65 H22          2.2490     4.3620     0.9050 h1         1 ZYF       0.085700
     66 H25          0.4930     5.9480     0.1290 hc         1 ZYF       0.065700
     67 H25A         0.0320     4.7900    -1.1630 hc         1 ZYF       0.065700
     68 HN29        -1.3370     3.2100    -0.7120 hn         1 ZYF       0.317500
     69 H30         -2.0410     2.4860     2.1090 h1         1 ZYF       0.093700
     70 H31         -4.4550     2.3120     1.5100 hc         1 ZYF       0.064700
     71 H31A        -3.8270     3.9450     1.5760 hc         1 ZYF       0.064700
     72 H32         -5.3680     3.7460    -0.2900 hc         1 ZYF       0.050700
     73 H32A        -3.7640     4.1070    -0.8900 hc         1 ZYF       0.050700
     74 H33         -5.1140     1.3350    -0.9360 hc         1 ZYF       0.063200
     75 H33A        -4.9460     2.4420    -2.2910 hc         1 ZYF       0.063200
     76 H34         -3.2270     0.9220    -2.6490 h1         1 ZYF       0.048200
     77 H34A        -2.3700     2.2870    -1.9430 h1         1 ZYF       0.048200
     78 HO36        -2.6540    -1.3900    -0.7320 ho         1 ZYF       0.490000
     79 H39          2.2550    -0.4690     0.8760 hc         1 ZYF       0.085700
     80 H39A         0.7980     0.2860     0.2680 hc         1 ZYF       0.085700
     81 H40          0.6640    -1.3580    -1.5960 hc         1 ZYF       0.029700
     82 H40A         2.1360    -2.1540    -1.0430 hc         1 ZYF       0.029700
     83 H41          1.0790    -2.9140     1.0180 hc         1 ZYF       0.070700
     84 H41A        -0.3040    -1.8610     0.7710 hc         1 ZYF       0.070700
     85 H42         -0.8760    -3.2050    -1.3360 h1         1 ZYF       0.055700
     86 H42A         0.3760    -4.3550    -0.8500 h1         1 ZYF       0.055700
     87 HO44        -0.9260    -6.1820     0.6570 ho         1 ZYF       0.437000
     88 H47         -3.2880    -5.5960     1.7170 ha         1 ZYF       0.181000
     89 H48         -4.9350    -4.5670     3.1440 ha         1 ZYF       0.164000
     90 H49         -5.0620    -2.2410     3.5300 hc         1 ZYF       0.061700
     91 H49A        -3.8860    -1.8610     2.2920 hc         1 ZYF       0.061700
     92 H50         -5.6400    -2.3170     0.5190 hc         1 ZYF       0.040700
     93 H50A        -6.8080    -2.6640     1.7910 hc         1 ZYF       0.040700
     94 H51         -6.5740    -0.3350     2.6680 hc         1 ZYF       0.033200
     95 H51A        -5.3520     0.0160     1.4460 hc         1 ZYF       0.033200
     96 H52         -7.0220    -0.3250    -0.3670 hc         1 ZYF       0.036200
     97 H52A        -8.2570    -0.7470     0.8190 hc         1 ZYF       0.036200
     98 H53         -8.1470     1.5300     1.8050 hc         1 ZYF       0.019200
     99 H53A        -6.8360     1.9700     0.7160 hc         1 ZYF       0.019200
    100 H54         -8.3650     1.6410    -1.2560 hc         1 ZYF       0.040700
    101 H54A        -9.6800     1.2260    -0.1580 hc         1 ZYF       0.040700
    102 H55         -9.5510     3.4480     0.8830 hc         1 ZYF       0.010200
    103 H55A        -8.1900     3.8760    -0.2750 hc         1 ZYF       0.010200
    104 H56          2.8210     6.1160    -0.8500 hc         1 ZYF       0.047033
    105 H56A         3.8270     4.6730    -1.0190 hc         1 ZYF       0.047033
    106 H56B         2.4610     4.9350    -2.1260 hc         1 ZYF       0.047033
@<TRIPOS>BOND
     1     1     2 1   
     2     1    55 1   
     3     2     3 ar  
     4     2     7 ar  
     5     3     4 ar  
     6     3    56 1   
     7     4     5 ar  
     8     4    57 1   
     9     5     6 ar  
    10     5    58 1   
    11     6     7 ar  
    12     6    59 1   
    13     7     8 1   
    14     8     9 2   
    15     8    12 1   
    16     9    10 1   
    17    10    11 1   
    18    10    13 1   
    19    10    60 1   
    20    11    12 1   
    21    11    61 1   
    22    11    62 1   
    23    13    14 2   
    24    13    15 1   
    25    15    16 1   
    26    15    63 1   
    27    16    17 1   
    28    16    34 1   
    29    16    64 1   
    30    17    18 2   
    31    17    19 1   
    32    19    20 1   
    33    20    21 1   
    34    20    53 1   
    35    20    65 1   
    36    21    22 1   
    37    21    66 1   
    38    21    67 1   
    39    22    23 2   
    40    22    24 1   
    41    24    25 1   
    42    24    68 1   
    43    25    26 1   
    44    25    32 1   
    45    25    69 1   
    46    26    27 1   
    47    26    70 1   
    48    26    71 1   
    49    27    28 1   
    50    27    72 1   
    51    27    73 1   
    52    28    29 1   
    53    28    74 1   
    54    28    75 1   
    55    29    30 1   
    56    29    76 1   
    57    29    77 1   
    58    30    31 1   
    59    30    32 1   
    60    31    78 1   
    61    32    33 2   
    62    34    35 1   
    63    34    79 1   
    64    34    80 1   
    65    35    36 1   
    66    35    81 1   
    67    35    82 1   
    68    36    37 1   
    69    36    83 1   
    70    36    84 1   
    71    37    38 1   
    72    37    85 1   
    73    37    86 1   
    74    38    39 1   
    75    38    40 1   
    76    39    87 1   
    77    40    41 2   
    78    40    42 1   
    79    42    43 2   
    80    42    88 1   
    81    43    44 1   
    82    43    89 1   
    83    44    45 1   
    84    44    90 1   
    85    44    91 1   
    86    45    46 1   
    87    45    92 1   
    88    45    93 1   
    89    46    47 1   
    90    46    94 1   
    91    46    95 1   
    92    47    48 1   
    93    47    96 1   
    94    47    97 1   
    95    48    50 1   
    96    48    98 1   
    97    48    99 1   
    98    49    54 1   
    99    50    52 1   
   100    50   100 1   
   101    50   101 1   
   102    51    54 1   
   103    52    54 1   
   104    52   102 1   
   105    52   103 1   
   106    53   104 1   
   107    53   105 1   
   108    53   106 1   
@<TRIPOS>SUBSTRUCTURE
     1 ZYF         1 TEMP              0 ****  ****    0 ROOT
