@<TRIPOS>MOLECULE
ZYG
  104   106     1     0     0
SMALL
No Charge or Current Charge


@<TRIPOS>ATOM
      1 O2           6.4830    -1.7220    -1.4860 oh         1 ZYG      -0.554100
      2 C3           7.1540    -2.6450    -0.7420 ca         1 ZYG       0.220100
      3 C4           8.4930    -2.3900    -0.4040 ca         1 ZYG      -0.179000
      4 C5           9.2200    -3.3140     0.3650 ca         1 ZYG      -0.040000
      5 C6           8.6000    -4.4980     0.7940 ca         1 ZYG      -0.175000
      6 C7           7.2580    -4.7590     0.4590 ca         1 ZYG      -0.016000
      7 C8           6.5170    -3.8340    -0.3150 ca         1 ZYG      -0.262900
      8 C10          5.0850    -4.1230    -0.6350 ce         1 ZYG       0.703200
      9 N11          4.3180    -3.2920    -1.2810 n2         1 ZYG      -0.726900
     10 C12          2.9130    -3.7440    -0.9920 c5         1 ZYG       0.019500
     11 C13          3.1370    -5.2150    -0.5680 c5         1 ZYG       0.130600
     12 O14          4.4670    -5.1890    -0.0190 os         1 ZYG      -0.425600
     13 C15          2.2330    -2.9370     0.1700 c          1 ZYG       0.600100
     14 O16          1.8550    -3.3510     1.2580 o          1 ZYG      -0.589100
     15 N17          2.1380    -1.6180    -0.2220 ns         1 ZYG      -0.484900
     16 C18          1.6700    -0.5010     0.6220 c3         1 ZYG       0.094700
     17 C19          2.5570    -0.3220     1.9010 c3         1 ZYG       0.376300
     18 O20          2.1980     0.8540     2.6180 oh         1 ZYG      -0.662000
     19 O21          3.9240    -0.1900     1.4800 os         1 ZYG      -0.511000
     20 C22          4.9250    -0.4510     2.4850 c3         1 ZYG       0.187300
     21 C25          6.2390     0.1700     1.9770 c3         1 ZYG      -0.157400
     22 C27          6.1380     1.6840     2.0820 c          1 ZYG       0.603100
     23 O28          6.2390     2.2750     3.1470 o          1 ZYG      -0.575100
     24 N29          5.9240     2.3450     0.8950 ns         1 ZYG      -0.512900
     25 C30          5.5120     3.7620     0.8150 c3         1 ZYG       0.056700
     26 C31          5.8670     4.4070    -0.5500 c3         1 ZYG      -0.087400
     27 C32          5.4230     3.6370    -1.8180 c3         1 ZYG      -0.076400
     28 C33          3.9010     3.4080    -1.9530 c3         1 ZYG      -0.107400
     29 C34          3.3090     2.4940    -0.8630 c3         1 ZYG       0.123000
     30 N35          3.0310     3.1880     0.4140 n          1 ZYG      -0.272300
     31 O36          1.6600     3.1310     0.8650 oh         1 ZYG      -0.468100
     32 C37          4.0040     3.8960     1.1790 c          1 ZYG       0.539000
     33 O38          3.6560     4.5630     2.1480 o          1 ZYG      -0.553000
     34 C39          0.1520    -0.6120     0.9410 c3         1 ZYG      -0.084400
     35 C40         -0.7500    -0.7110    -0.3130 c3         1 ZYG      -0.066400
     36 C41         -2.2560    -0.7490     0.0300 c3         1 ZYG      -0.101400
     37 C42         -3.1520    -0.8460    -1.2220 c3         1 ZYG       0.108000
     38 N43         -4.5960    -0.9160    -0.9000 n          1 ZYG      -0.299300
     39 O44         -5.0760    -2.2090    -0.4700 oh         1 ZYG      -0.434100
     40 C45         -5.4760     0.2000    -1.0010 c          1 ZYG       0.614100
     41 O46         -5.0630     1.3000    -1.3500 o          1 ZYG      -0.591100
     42 C47         -6.9630    -0.0300    -0.6570 c3         1 ZYG      -0.144400
     43 C48         -7.9060     1.1820    -0.8640 c3         1 ZYG      -0.070400
     44 C49         -9.3850     0.8480    -0.5730 c3         1 ZYG      -0.078400
     45 C50        -10.3380     2.0390    -0.8180 c3         1 ZYG      -0.074400
     46 C51        -11.8200     1.6870    -0.5610 c3         1 ZYG      -0.079400
     47 O51        -15.5650     3.8850    -2.0290 o          1 ZYG      -0.743500
     48 C52        -12.7790     2.8690    -0.8290 c3         1 ZYG      -0.054400
     49 O52        -15.3840     4.5220     0.0190 o          1 ZYG      -0.743500
     50 C53        -14.2670     2.5150    -0.5870 c3         1 ZYG      -0.204400
     51 C54        -15.1590     3.7340    -0.8870 c          1 ZYG       0.717000
     52 C56          5.0300    -1.9800     2.6810 c3         1 ZYG      -0.124100
     53 HO2          5.5590    -2.0800    -1.5820 ho         1 ZYG       0.526000
     54 H4           8.9700    -1.4710    -0.7390 ha         1 ZYG       0.130000
     55 H5          10.2590    -3.1130     0.6260 ha         1 ZYG       0.114000
     56 H6           9.1590    -5.2180     1.3900 ha         1 ZYG       0.120000
     57 H7           6.8010    -5.6860     0.8070 ha         1 ZYG       0.127000
     58 H12          2.2740    -3.6710    -1.8840 h1         1 ZYG       0.079700
     59 H13          2.4150    -5.5970     0.1690 h1         1 ZYG       0.074700
     60 H13A         3.1290    -5.8790    -1.4430 h1         1 ZYG       0.074700
     61 HN17         2.5430    -1.4010    -1.1250 hn         1 ZYG       0.313500
     62 H18          1.7950     0.4060     0.0210 h1         1 ZYG       0.052700
     63 H19          2.4160    -1.1950     2.5510 h2         1 ZYG       0.087700
     64 H22          4.6610     0.0130     3.4470 h1         1 ZYG       0.072700
     65 H25          7.0620    -0.1720     2.6140 hc         1 ZYG       0.063700
     66 H25A         6.4070    -0.1430     0.9400 hc         1 ZYG       0.063700
     67 HN29         5.8800     1.7740     0.0610 hn         1 ZYG       0.316500
     68 H31          5.4500     5.4220    -0.5810 hc         1 ZYG       0.059700
     69 H32          5.7630     4.2020    -2.6950 hc         1 ZYG       0.041200
     70 H32A         5.9420     2.6720    -1.8640 hc         1 ZYG       0.041200
     71 H33          3.3710     4.3690    -1.9640 hc         1 ZYG       0.056200
     72 H33A         3.7160     2.9390    -2.9270 hc         1 ZYG       0.056200
     73 H34          2.3570     2.1070    -1.2490 h1         1 ZYG       0.066200
     74 H34A         3.9550     1.6250    -0.6900 h1         1 ZYG       0.066200
     75 HO36         1.2460     3.9680     0.5460 ho         1 ZYG       0.480000
     76 H39         -0.0270    -1.4810     1.5860 hc         1 ZYG       0.068200
     77 H39A        -0.1560     0.2690     1.5170 hc         1 ZYG       0.068200
     78 H40         -0.5510     0.1460    -0.9680 hc         1 ZYG       0.031700
     79 H40A        -0.4940    -1.6150    -0.8800 hc         1 ZYG       0.031700
     80 H41         -2.4570    -1.6070     0.6820 hc         1 ZYG       0.058700
     81 H41A        -2.5260     0.1530     0.5930 hc         1 ZYG       0.058700
     82 H42         -2.9600     0.0170    -1.8740 h1         1 ZYG       0.054700
     83 H42A        -2.8790    -1.7450    -1.7890 h1         1 ZYG       0.054700
     84 HO44        -5.3360    -2.6810    -1.2940 ho         1 ZYG       0.439000
     85 H47         -7.3050    -0.9050    -1.2220 hc         1 ZYG       0.063200
     86 H47A        -7.0120    -0.4130     0.3690 hc         1 ZYG       0.063200
     87 H48         -7.5840     2.0070    -0.2150 hc         1 ZYG       0.052200
     88 H48A        -7.8150     1.5340    -1.8990 hc         1 ZYG       0.052200
     89 H49         -9.6940     0.0070    -1.2070 hc         1 ZYG       0.031700
     90 H49A        -9.4830     0.5160     0.4680 hc         1 ZYG       0.031700
     91 H50        -10.0470     2.8750    -0.1690 hc         1 ZYG       0.036700
     92 H50A       -10.2250     2.3830    -1.8540 hc         1 ZYG       0.036700
     93 H51        -12.1040     0.8430    -1.2010 hc         1 ZYG       0.023700
     94 H51A       -11.9370     1.3560     0.4780 hc         1 ZYG       0.023700
     95 H52        -12.4990     3.7130    -0.1850 hc         1 ZYG       0.038700
     96 H52A       -12.6530     3.2050    -1.8660 hc         1 ZYG       0.038700
     97 H53        -14.4960     1.6930    -1.2770 hc         1 ZYG       0.014200
     98 H53A       -14.3410     2.2360     0.4720 hc         1 ZYG       0.014200
     99 H56          5.8850    -2.2280     3.3210 hc         1 ZYG       0.048033
    100 H56A         4.1320    -2.3840     3.1600 hc         1 ZYG       0.048033
    101 H56B         5.1670    -2.4830     1.7190 hc         1 ZYG       0.048033
    102 H521         2.2330     1.5880     1.9610 ho         1 ZYG       0.468000
    103 H522         6.0560     4.3220     1.5880 h1         1 ZYG       0.096700
    104 H532         6.9560     4.5270    -0.5940 hc         1 ZYG       0.059700
@<TRIPOS>BOND
     1     1     2 1   
     2     1    53 1   
     3     2     3 ar  
     4     2     7 ar  
     5     3     4 ar  
     6     3    54 1   
     7     4     5 ar  
     8     4    55 1   
     9     5     6 ar  
    10     5    56 1   
    11     6     7 ar  
    12     6    57 1   
    13     7     8 1   
    14     8     9 2   
    15     8    12 1   
    16     9    10 1   
    17    10    11 1   
    18    10    13 1   
    19    10    58 1   
    20    11    12 1   
    21    11    59 1   
    22    11    60 1   
    23    13    14 2   
    24    13    15 1   
    25    15    16 1   
    26    15    61 1   
    27    16    17 1   
    28    16    34 1   
    29    16    62 1   
    30    17    18 1   
    31    17    19 1   
    32    17    63 1   
    33    18   102 1   
    34    19    20 1   
    35    20    21 1   
    36    20    52 1   
    37    20    64 1   
    38    21    22 1   
    39    21    65 1   
    40    21    66 1   
    41    22    23 2   
    42    22    24 1   
    43    24    25 1   
    44    24    67 1   
    45    25    26 1   
    46    25    32 1   
    47    25   103 1   
    48    26    27 1   
    49    26    68 1   
    50    26   104 1   
    51    27    28 1   
    52    27    69 1   
    53    27    70 1   
    54    28    29 1   
    55    28    71 1   
    56    28    72 1   
    57    29    30 1   
    58    29    73 1   
    59    29    74 1   
    60    30    31 1   
    61    30    32 1   
    62    31    75 1   
    63    32    33 2   
    64    34    35 1   
    65    34    76 1   
    66    34    77 1   
    67    35    36 1   
    68    35    78 1   
    69    35    79 1   
    70    36    37 1   
    71    36    80 1   
    72    36    81 1   
    73    37    38 1   
    74    37    82 1   
    75    37    83 1   
    76    38    39 1   
    77    38    40 1   
    78    39    84 1   
    79    40    41 2   
    80    40    42 1   
    81    42    43 1   
    82    42    85 1   
    83    42    86 1   
    84    43    44 1   
    85    43    87 1   
    86    43    88 1   
    87    44    45 1   
    88    44    89 1   
    89    44    90 1   
    90    45    46 1   
    91    45    91 1   
    92    45    92 1   
    93    46    48 1   
    94    46    93 1   
    95    46    94 1   
    96    47    51 1   
    97    48    50 1   
    98    48    95 1   
    99    48    96 1   
   100    49    51 1   
   101    50    51 1   
   102    50    97 1   
   103    50    98 1   
   104    52    99 1   
   105    52   100 1   
   106    52   101 1   
@<TRIPOS>SUBSTRUCTURE
     1 ZYG         1 TEMP              0 ****  ****    0 ROOT
