@<TRIPOS>MOLECULE
ZYG
  104   106     1     0     0
SMALL
abcg2


@<TRIPOS>ATOM
      1 O2           6.4380    -4.2230     0.4650 oh         1 ZYG      -0.554100
      2 C3           5.9520    -5.4620     0.5060 ca         1 ZYG       0.220100
      3 C4           6.7350    -6.4630     1.0840 ca         1 ZYG      -0.179000
      4 C5           6.2730    -7.7640     1.1420 ca         1 ZYG      -0.040000
      5 C6           5.0230    -8.1050     0.6270 ca         1 ZYG      -0.175000
      6 C7           4.2400    -7.1230     0.0550 ca         1 ZYG      -0.016000
      7 C8           4.6850    -5.8000    -0.0130 ca         1 ZYG      -0.262900
      8 C10          3.8660    -4.7520    -0.6000 ce         1 ZYG       0.703200
      9 N11          4.2450    -3.5380    -0.7220 n2         1 ZYG      -0.726900
     10 C12          3.1320    -2.7830    -1.2660 c5         1 ZYG       0.019500
     11 C13          2.1180    -3.8770    -1.6540 c5         1 ZYG       0.130600
     12 O14          2.6520    -5.0650    -1.0470 os         1 ZYG      -0.425600
     13 C15          2.5800    -1.8770    -0.1660 c          1 ZYG       0.600100
     14 O16          2.2050    -2.3630     0.8900 o          1 ZYG      -0.589100
     15 N17          2.5280    -0.5780    -0.4710 ns         1 ZYG      -0.484900
     16 C18          2.0420     0.4740     0.4060 c3         1 ZYG       0.094700
     17 C19          3.0030     0.6750     1.5900 c3         1 ZYG       0.376300
     18 O20          2.5800     1.6870     2.4450 oh         1 ZYG      -0.662000
     19 O21          4.2670     0.9260     1.0510 os         1 ZYG      -0.511000
     20 C22          5.3760     0.4890     1.8250 c3         1 ZYG       0.187300
     21 C25          6.5410     1.4110     1.4900 c3         1 ZYG      -0.157400
     22 C27          6.1680     2.8460     1.7690 c          1 ZYG       0.603100
     23 O28          5.7480     3.2100     2.8560 o          1 ZYG      -0.575100
     24 N29          6.3070     3.7050     0.7400 ns         1 ZYG      -0.512900
     25 C30          5.8210     5.0610     0.8280 c3         1 ZYG       0.056700
     26 C31          6.1270     5.8530    -0.4440 c3         1 ZYG      -0.087400
     27 C32          5.6990     5.2140    -1.7620 c3         1 ZYG      -0.076400
     28 C33          4.2240     4.8530    -1.8840 c3         1 ZYG      -0.107400
     29 C34          3.7280     3.8110    -0.8900 c3         1 ZYG       0.123000
     30 N35          3.5180     4.3270     0.4510 n          1 ZYG      -0.272300
     31 O36          2.1930     4.3210     0.8460 oh         1 ZYG      -0.468100
     32 C37          4.3390     5.0900     1.1860 c          1 ZYG       0.539000
     33 O38          3.9010     5.7730     2.1070 o          1 ZYG      -0.553000
     34 C39          0.5940     0.2680     0.8580 c3         1 ZYG      -0.084400
     35 C40         -0.3530    -0.0790    -0.2830 c3         1 ZYG      -0.066400
     36 C41         -1.8020    -0.1650     0.1790 c3         1 ZYG      -0.101400
     37 C42         -2.7090    -0.6500    -0.9440 c3         1 ZYG       0.108000
     38 N43         -4.0910    -0.8150    -0.5530 n          1 ZYG      -0.299300
     39 O44         -4.3270    -1.8410     0.3250 oh         1 ZYG      -0.434100
     40 C45         -5.0720     0.0940    -0.7620 c          1 ZYG       0.614100
     41 O46         -4.8520     1.1170    -1.3950 o          1 ZYG      -0.591100
     42 C47         -6.4380    -0.2460    -0.2050 c3         1 ZYG      -0.144400
     43 C48         -7.5420     0.6480    -0.7510 c3         1 ZYG      -0.070400
     44 C49         -8.9110     0.2300    -0.2260 c3         1 ZYG      -0.078400
     45 C50        -10.0550     1.0350    -0.8300 c3         1 ZYG      -0.074400
     46 C51        -11.4250     0.5920    -0.3330 c3         1 ZYG      -0.079400
     47 O51        -16.2750     1.1130    -0.7880 o          1 ZYG      -0.743500
     48 C52        -12.5790     1.3570    -0.9710 c3         1 ZYG      -0.054400
     49 O52        -14.9630     2.6360    -1.7430 o          1 ZYG      -0.743500
     50 C53        -13.9370     0.8860    -0.4780 c3         1 ZYG      -0.204400
     51 C54        -15.1620     1.6110    -1.0620 c          1 ZYG       0.717000
     52 C56          5.7150    -0.9600     1.5190 c3         1 ZYG      -0.124100
     53 HO2          5.7700    -3.6360     0.0220 ho         1 ZYG       0.526000
     54 H4           7.7070    -6.2040     1.4850 ha         1 ZYG       0.130000
     55 H5           6.8960    -8.5260     1.5930 ha         1 ZYG       0.114000
     56 H6           4.6710    -9.1250     0.6730 ha         1 ZYG       0.120000
     57 H7           3.2690    -7.3820    -0.3460 ha         1 ZYG       0.127000
     58 H12          3.4500    -2.2060    -2.1380 h1         1 ZYG       0.079700
     59 H13          1.1100    -3.7150    -1.2760 h1         1 ZYG       0.074700
     60 H13A         2.0740    -4.0270    -2.7330 h1         1 ZYG       0.074700
     61 HN17         2.9180    -0.2890    -1.3520 hn         1 ZYG       0.313500
     62 H18          2.0700     1.3810    -0.2060 h1         1 ZYG       0.052700
     63 H19          3.0110    -0.2330     2.2030 h2         1 ZYG       0.087700
     64 H22          5.1530     0.5950     2.8930 h1         1 ZYG       0.072700
     65 H25          7.3980     1.1400     2.1110 hc         1 ZYG       0.063700
     66 H25A         6.8430     1.2680     0.4490 hc         1 ZYG       0.063700
     67 HN29         6.6540     3.3620    -0.1420 hn         1 ZYG       0.316500
     68 H31          5.6620     6.8360    -0.3370 hc         1 ZYG       0.059700
     69 H32          5.9530     5.9150    -2.5600 hc         1 ZYG       0.041200
     70 H32A         6.3010     4.3230    -1.9690 hc         1 ZYG       0.041200
     71 H33          3.5990     5.7480    -1.8070 hc         1 ZYG       0.056200
     72 H33A         4.0560     4.4490    -2.8850 hc         1 ZYG       0.056200
     73 H34          2.7580     3.4410    -1.2180 h1         1 ZYG       0.066200
     74 H34A         4.3900     2.9450    -0.8530 h1         1 ZYG       0.066200
     75 HO36         2.1240     5.0710     1.4630 ho         1 ZYG       0.480000
     76 H39          0.5400    -0.5050     1.6270 hc         1 ZYG       0.068200
     77 H39A         0.2600     1.1950     1.3270 hc         1 ZYG       0.068200
     78 H40         -0.2630     0.6660    -1.0810 hc         1 ZYG       0.031700
     79 H40A        -0.0670    -1.0370    -0.7270 hc         1 ZYG       0.031700
     80 H41         -1.8730    -0.8520     1.0270 hc         1 ZYG       0.058700
     81 H41A        -2.1440     0.8120     0.5300 hc         1 ZYG       0.058700
     82 H42         -2.6850     0.0450    -1.7820 h1         1 ZYG       0.054700
     83 H42A        -2.3530    -1.6120    -1.3250 h1         1 ZYG       0.054700
     84 HO44        -4.4910    -2.6270    -0.2140 ho         1 ZYG       0.439000
     85 H47         -6.6750    -1.2910    -0.4190 hc         1 ZYG       0.063200
     86 H47A        -6.4010    -0.1740     0.8870 hc         1 ZYG       0.063200
     87 H48         -7.3530     1.6920    -0.4910 hc         1 ZYG       0.052200
     88 H48A        -7.5480     0.5980    -1.8440 hc         1 ZYG       0.052200
     89 H49         -9.0690    -0.8330    -0.4390 hc         1 ZYG       0.031700
     90 H49A        -8.9320     0.3260     0.8650 hc         1 ZYG       0.031700
     91 H50         -9.9140     2.0990    -0.6100 hc         1 ZYG       0.036700
     92 H50A       -10.0190     0.9450    -1.9210 hc         1 ZYG       0.036700
     93 H51        -11.5470    -0.4800    -0.5280 hc         1 ZYG       0.023700
     94 H51A       -11.4710     0.7040     0.7560 hc         1 ZYG       0.023700
     95 H52        -12.4620     2.4260    -0.7680 hc         1 ZYG       0.038700
     96 H52A       -12.5210     1.2500    -2.0580 hc         1 ZYG       0.038700
     97 H53        -14.0450    -0.1880    -0.6650 hc         1 ZYG       0.014200
     98 H53A       -13.9810     0.9850     0.6150 hc         1 ZYG       0.014200
     99 H56          6.5840    -1.2800     2.0950 hc         1 ZYG       0.048033
    100 H56A         4.8920    -1.6290     1.7720 hc         1 ZYG       0.048033
    101 H56B         5.9420    -1.0880     0.4590 hc         1 ZYG       0.048033
    102 H521         2.4450     2.5070     1.9480 ho         1 ZYG       0.468000
    103 H522         6.3120     5.5700     1.6600 h1         1 ZYG       0.096700
    104 H532         7.2040     6.0280    -0.4730 hc         1 ZYG       0.059700
@<TRIPOS>BOND
     1     1     2 1   
     2     1    53 1   
     3     2     3 ar  
     4     2     7 ar  
     5     3     4 ar  
     6     3    54 1   
     7     4     5 ar  
     8     4    55 1   
     9     5     6 ar  
    10     5    56 1   
    11     6     7 ar  
    12     6    57 1   
    13     7     8 1   
    14     8     9 2   
    15     8    12 1   
    16     9    10 1   
    17    10    11 1   
    18    10    13 1   
    19    10    58 1   
    20    11    12 1   
    21    11    59 1   
    22    11    60 1   
    23    13    14 2   
    24    13    15 1   
    25    15    16 1   
    26    15    61 1   
    27    16    17 1   
    28    16    34 1   
    29    16    62 1   
    30    17    18 1   
    31    17    19 1   
    32    17    63 1   
    33    18   102 1   
    34    19    20 1   
    35    20    21 1   
    36    20    52 1   
    37    20    64 1   
    38    21    22 1   
    39    21    65 1   
    40    21    66 1   
    41    22    23 2   
    42    22    24 1   
    43    24    25 1   
    44    24    67 1   
    45    25    26 1   
    46    25    32 1   
    47    25   103 1   
    48    26    27 1   
    49    26    68 1   
    50    26   104 1   
    51    27    28 1   
    52    27    69 1   
    53    27    70 1   
    54    28    29 1   
    55    28    71 1   
    56    28    72 1   
    57    29    30 1   
    58    29    73 1   
    59    29    74 1   
    60    30    31 1   
    61    30    32 1   
    62    31    75 1   
    63    32    33 2   
    64    34    35 1   
    65    34    76 1   
    66    34    77 1   
    67    35    36 1   
    68    35    78 1   
    69    35    79 1   
    70    36    37 1   
    71    36    80 1   
    72    36    81 1   
    73    37    38 1   
    74    37    82 1   
    75    37    83 1   
    76    38    39 1   
    77    38    40 1   
    78    39    84 1   
    79    40    41 2   
    80    40    42 1   
    81    42    43 1   
    82    42    85 1   
    83    42    86 1   
    84    43    44 1   
    85    43    87 1   
    86    43    88 1   
    87    44    45 1   
    88    44    89 1   
    89    44    90 1   
    90    45    46 1   
    91    45    91 1   
    92    45    92 1   
    93    46    48 1   
    94    46    93 1   
    95    46    94 1   
    96    47    51 1   
    97    48    50 1   
    98    48    95 1   
    99    48    96 1   
   100    49    51 1   
   101    50    51 1   
   102    50    97 1   
   103    50    98 1   
   104    52    99 1   
   105    52   100 1   
   106    52   101 1   
@<TRIPOS>SUBSTRUCTURE
     1 ZYG         1 TEMP              0 ****  ****    0 ROOT
