@<TRIPOS>MOLECULE
ZYH
   63    68     1     0     0
SMALL
bcc


@<TRIPOS>ATOM
      1 O01          0.6440    -4.3520     0.6380 o          1 ZYH      -0.594100
      2 C02          0.6800    -3.1650     0.3360 c          1 ZYH       0.688700
      3 C03          1.9730    -2.4680     0.0730 ca         1 ZYH      -0.129600
      4 C04          2.9930    -3.1990    -0.5570 ca         1 ZYH      -0.100000
      5 C05          4.2370    -2.6500    -0.8130 ca         1 ZYH      -0.076000
      6 C06          4.4540    -1.3410    -0.3980 ca         1 ZYH       0.073400
      7 N07          5.5620    -0.5210    -0.4790 nc         1 ZYH      -0.575100
      8 C08          5.2000     0.5800     0.0810 cd         1 ZYH       0.547600
      9 O09          3.9270     0.5850     0.5430 os         1 ZYH      -0.279700
     10 C10          3.4360    -0.6410     0.2390 ca         1 ZYH       0.012100
     11 C11          2.1840    -1.1570     0.4930 ca         1 ZYH      -0.080000
     12 C12          6.0140     1.8100     0.2620 c6         1 ZYH      -0.073000
     13 C13          7.2410     1.5260     1.1400 c6         1 ZYH      -0.069400
     14 C14          8.0900     2.7820     1.3100 c6         1 ZYH      -0.074400
     15 C15          8.5090     3.3570    -0.0380 c6         1 ZYH      -0.076400
     16 C16          7.2940     3.6290    -0.9190 c6         1 ZYH      -0.074400
     17 C17          6.4440     2.3770    -1.0980 c6         1 ZYH      -0.069400
     18 N18         -0.4340    -2.4320     0.2300 nj         1 ZYH      -0.478800
     19 C19         -1.8040    -2.9150     0.2700 cy         1 ZYH       0.100000
     20 C20         -2.2260    -1.6810    -0.5560 cy         1 ZYH       0.131500
     21 C21         -0.7650    -1.1900    -0.4640 cy         1 ZYH       0.100000
     22 N22         -3.1950    -0.8210     0.0680 n3         1 ZYH      -0.707600
     23 C23         -3.3550     0.4210    -0.6680 c6         1 ZYH       0.146300
     24 C24         -4.3080     1.3560     0.0550 c6         1 ZYH       0.227300
     25 N25         -5.5750     0.6960     0.2920 nh         1 ZYH      -0.778300
     26 C26         -5.4510    -0.5790     0.9660 c6         1 ZYH       0.227300
     27 C27         -4.4830    -1.4760     0.2150 c6         1 ZYH       0.146300
     28 C28         -6.7670     1.3050     0.0900 ca         1 ZYH       0.919900
     29 N29         -6.7580     2.5310    -0.4530 nb         1 ZYH      -0.777500
     30 C30         -7.9300     3.1010    -0.6660 ca         1 ZYH       0.483200
     31 C31         -9.1360     2.4940    -0.3520 ca         1 ZYH      -0.438600
     32 C32         -9.0320     1.2340     0.2130 ca         1 ZYH       0.483200
     33 N33         -7.8750     0.6360     0.4380 nb         1 ZYH      -0.777500
     34 H041         2.7940    -4.2190    -0.8580 ha         1 ZYH       0.155000
     35 H051         5.0100    -3.2190    -1.3120 ha         1 ZYH       0.156000
     36 H111         1.4290    -0.5840     1.0140 ha         1 ZYH       0.158000
     37 H121         5.3910     2.5530     0.7690 hc         1 ZYH       0.070700
     38 H131         6.9220     1.1490     2.1150 hc         1 ZYH       0.053700
     39 H132         7.8380     0.7370     0.6720 hc         1 ZYH       0.053700
     40 H141         7.5160     3.5330     1.8630 hc         1 ZYH       0.041700
     41 H142         8.9670     2.5500     1.9170 hc         1 ZYH       0.041700
     42 H151         9.0830     4.2760     0.1060 hc         1 ZYH       0.042200
     43 H152         9.1740     2.6490    -0.5450 hc         1 ZYH       0.042200
     44 H161         6.6860     4.4180    -0.4640 hc         1 ZYH       0.041700
     45 H162         7.6070     4.0020    -1.8970 hc         1 ZYH       0.041700
     46 H171         7.0170     1.6160    -1.6360 hc         1 ZYH       0.053700
     47 H172         5.5630     2.6010    -1.7050 hc         1 ZYH       0.053700
     48 H191        -1.9520    -3.8820    -0.2130 h1         1 ZYH       0.064450
     49 H192        -2.2160    -2.9510     1.2810 h1         1 ZYH       0.064450
     50 H201        -2.5050    -1.9540    -1.5840 h1         1 ZYH       0.044700
     51 H211        -0.6450    -0.2990     0.1560 h1         1 ZYH       0.064450
     52 H212        -0.2420    -1.0460    -1.4100 h1         1 ZYH       0.064450
     53 H231        -2.3880     0.9210    -0.7590 h1         1 ZYH       0.042950
     54 H232        -3.7250     0.2410    -1.6920 h1         1 ZYH       0.042950
     55 H241        -3.8650     1.6590     1.0110 h1         1 ZYH       0.067700
     56 H242        -4.4650     2.2510    -0.5390 h1         1 ZYH       0.067700
     57 H261        -5.0840    -0.4220     1.9870 h1         1 ZYH       0.067700
     58 H262        -6.4230    -1.0580     1.0310 h1         1 ZYH       0.067700
     59 H271        -4.9190    -1.7450    -0.7610 h1         1 ZYH       0.042950
     60 H272        -4.3620    -2.4020     0.7810 h1         1 ZYH       0.042950
     61 H301        -7.9070     4.0910    -1.1090 h4         1 ZYH       0.019100
     62 H311       -10.0870     2.9720    -0.5300 ha         1 ZYH       0.153000
     63 H321        -9.9210     0.6800     0.4970 h4         1 ZYH       0.019100
@<TRIPOS>BOND
     1     1     2 2   
     2     2     3 1   
     3     2    18 1   
     4     3     4 ar  
     5     3    11 ar  
     6     4     5 ar  
     7     4    34 1   
     8     5     6 ar  
     9     5    35 1   
    10     6     7 1   
    11     6    10 ar  
    12     7     8 2   
    13     8     9 1   
    14     8    12 1   
    15     9    10 1   
    16    10    11 ar  
    17    11    36 1   
    18    12    13 1   
    19    12    17 1   
    20    12    37 1   
    21    13    14 1   
    22    13    38 1   
    23    13    39 1   
    24    14    15 1   
    25    14    40 1   
    26    14    41 1   
    27    15    16 1   
    28    15    42 1   
    29    15    43 1   
    30    16    17 1   
    31    16    44 1   
    32    16    45 1   
    33    17    46 1   
    34    17    47 1   
    35    18    19 1   
    36    18    21 1   
    37    19    20 1   
    38    19    48 1   
    39    19    49 1   
    40    20    21 1   
    41    20    22 1   
    42    20    50 1   
    43    21    51 1   
    44    21    52 1   
    45    22    23 1   
    46    22    27 1   
    47    23    24 1   
    48    23    53 1   
    49    23    54 1   
    50    24    25 1   
    51    24    55 1   
    52    24    56 1   
    53    25    26 1   
    54    25    28 1   
    55    26    27 1   
    56    26    57 1   
    57    26    58 1   
    58    27    59 1   
    59    27    60 1   
    60    28    29 ar  
    61    28    33 ar  
    62    29    30 ar  
    63    30    31 ar  
    64    30    61 1   
    65    31    32 ar  
    66    31    62 1   
    67    32    33 ar  
    68    32    63 1   
@<TRIPOS>SUBSTRUCTURE
     1 ZYH         1 TEMP              0 ****  ****    0 ROOT
