@<TRIPOS>MOLECULE
ZYH
   63    68     1     0     0
SMALL
No Charge or Current Charge


@<TRIPOS>ATOM
      1 O01          0.0560    -2.7160    -0.8920 o          1 ZYH      -0.594100
      2 C02          0.4390    -1.5860    -0.5910 c          1 ZYH       0.621700
      3 C03          1.9420    -1.3560    -0.5000 ca         1 ZYH      -0.129600
      4 C04          2.8440    -2.4320    -0.7590 ca         1 ZYH      -0.082000
      5 C05          4.2450    -2.2560    -0.6840 ca         1 ZYH      -0.058000
      6 C06          4.7450    -0.9940    -0.3460 ca         1 ZYH       0.073400
      7 N07          6.0760    -0.5920    -0.2130 nc         1 ZYH      -0.575100
      8 C08          5.9220     0.7080     0.1210 cd         1 ZYH       0.547600
      9 O09          4.6140     1.1120     0.1980 os         1 ZYH      -0.279700
     10 C10          3.8760     0.0330    -0.0980 ca         1 ZYH       0.012100
     11 C11          2.4850    -0.0850    -0.1590 ca         1 ZYH      -0.062000
     12 C12          7.0510     1.6840     0.3980 c6         1 ZYH      -0.073000
     13 C13          7.9020     1.2370     1.6220 c6         1 ZYH      -0.069400
     14 C14          9.0520     2.2360     1.9050 c6         1 ZYH      -0.074400
     15 C15          9.9440     2.4320     0.6540 c6         1 ZYH      -0.076400
     16 C16          9.1050     2.8770    -0.5690 c6         1 ZYH      -0.074400
     17 C17          7.9550     1.8790    -0.8530 c6         1 ZYH      -0.069400
     18 N18         -0.3010    -0.3910    -0.2970 nj         1 ZYH      -0.411800
     19 C19         -1.2940    -0.9200     0.7000 cy         1 ZYH       0.100000
     20 C20         -2.3830    -1.0220    -0.4290 cy         1 ZYH       0.131500
     21 C21         -1.3180    -0.4000    -1.4030 cy         1 ZYH       0.100000
     22 N22         -3.6540    -0.2670    -0.2280 n3         1 ZYH      -0.707600
     23 C23         -4.4940    -0.2320    -1.4620 c6         1 ZYH       0.146300
     24 C24         -5.8050     0.5980    -1.2850 c6         1 ZYH       0.227300
     25 N25         -6.6160     0.1840    -0.0830 nh         1 ZYH      -0.778300
     26 C26         -5.7780    -0.0070     1.1560 c6         1 ZYH       0.227300
     27 C27         -4.4670    -0.8160     0.8980 c6         1 ZYH       0.146300
     28 C28         -8.0060     0.4750     0.0060 ca         1 ZYH       0.393900
     29 N29         -8.6270     0.8890    -1.1210 nb         1 ZYH      -0.251500
     30 C30         -9.9420     1.1620    -1.0360 ca         1 ZYH       0.154900
     31 C31        -10.6400     1.0200     0.1730 ca         1 ZYH      -0.290000
     32 C32         -9.9150     0.5830     1.2910 ca         1 ZYH       0.154900
     33 N33         -8.5990     0.3100     1.2100 nb         1 ZYH      -0.251500
     34 H041         2.4620    -3.4160    -1.0230 ha         1 ZYH       0.137000
     35 H051         4.9220    -3.0830    -0.8830 ha         1 ZYH       0.138000
     36 H111         1.8650     0.7830     0.0530 ha         1 ZYH       0.140000
     37 H121         6.5990     2.6560     0.6410 hc         1 ZYH       0.070700
     38 H131         7.2620     1.1500     2.5110 hc         1 ZYH       0.053700
     39 H132         8.3220     0.2370     1.4430 hc         1 ZYH       0.053700
     40 H141         8.6350     3.2030     2.2170 hc         1 ZYH       0.041700
     41 H142         9.6620     1.8740     2.7440 hc         1 ZYH       0.041700
     42 H151        10.7220     3.1780     0.8640 hc         1 ZYH       0.042200
     43 H152        10.4670     1.4930     0.4220 hc         1 ZYH       0.042200
     44 H161         8.6910     3.8790    -0.3880 hc         1 ZYH       0.041700
     45 H162         9.7520     2.9630    -1.4530 hc         1 ZYH       0.041700
     46 H171         8.3770     0.9140    -1.1660 hc         1 ZYH       0.053700
     47 H172         7.3520     2.2420    -1.6980 hc         1 ZYH       0.053700
     48 H191        -1.0470    -1.8710     1.1890 h1         1 ZYH       0.064450
     49 H192        -1.5280    -0.1710     1.4630 h1         1 ZYH       0.064450
     50 H201        -2.5880    -2.0680    -0.6860 h1         1 ZYH       0.044700
     51 H211        -1.5640     0.6180    -1.7240 h1         1 ZYH       0.064450
     52 H212        -1.0850    -1.0110    -2.2850 h1         1 ZYH       0.064450
     53 H231        -3.9270     0.2000    -2.3000 h1         1 ZYH       0.042950
     54 H232        -4.7690    -1.2550    -1.7580 h1         1 ZYH       0.042950
     55 H241        -5.5360     1.6610    -1.1990 h1         1 ZYH       0.067700
     56 H242        -6.3840     0.4860    -2.2140 h1         1 ZYH       0.067700
     57 H261        -5.5050     0.9750     1.5710 h1         1 ZYH       0.067700
     58 H262        -6.3360    -0.5420     1.9380 h1         1 ZYH       0.067700
     59 H271        -4.7410    -1.8610     0.6890 h1         1 ZYH       0.042950
     60 H272        -3.8810    -0.8220     1.8280 h1         1 ZYH       0.042950
     61 H301       -10.4390     1.4960    -1.9450 h4         1 ZYH       0.019100
     62 H311       -11.7020     1.2410     0.2400 ha         1 ZYH       0.135000
     63 H321       -10.3900     0.4500     2.2620 h4         1 ZYH       0.019100
@<TRIPOS>BOND
     1     1     2 2   
     2     2     3 1   
     3     2    18 1   
     4     3     4 ar  
     5     3    11 ar  
     6     4     5 ar  
     7     4    34 1   
     8     5     6 ar  
     9     5    35 1   
    10     6     7 1   
    11     6    10 ar  
    12     7     8 2   
    13     8     9 1   
    14     8    12 1   
    15     9    10 1   
    16    10    11 ar  
    17    11    36 1   
    18    12    13 1   
    19    12    17 1   
    20    12    37 1   
    21    13    14 1   
    22    13    38 1   
    23    13    39 1   
    24    14    15 1   
    25    14    40 1   
    26    14    41 1   
    27    15    16 1   
    28    15    42 1   
    29    15    43 1   
    30    16    17 1   
    31    16    44 1   
    32    16    45 1   
    33    17    46 1   
    34    17    47 1   
    35    18    19 1   
    36    18    21 1   
    37    19    20 1   
    38    19    48 1   
    39    19    49 1   
    40    20    21 1   
    41    20    22 1   
    42    20    50 1   
    43    21    51 1   
    44    21    52 1   
    45    22    23 1   
    46    22    27 1   
    47    23    24 1   
    48    23    53 1   
    49    23    54 1   
    50    24    25 1   
    51    24    55 1   
    52    24    56 1   
    53    25    26 1   
    54    25    28 1   
    55    26    27 1   
    56    26    57 1   
    57    26    58 1   
    58    27    59 1   
    59    27    60 1   
    60    28    29 ar  
    61    28    33 ar  
    62    29    30 ar  
    63    30    31 ar  
    64    30    61 1   
    65    31    32 ar  
    66    31    62 1   
    67    32    33 ar  
    68    32    63 1   
@<TRIPOS>SUBSTRUCTURE
     1 ZYH         1 TEMP              0 ****  ****    0 ROOT
