@<TRIPOS>MOLECULE
ZYI
   34    36     1     0     0
SMALL
No Charge or Current Charge


@<TRIPOS>ATOM
      1 N1           0.9300    -1.0480    -0.7910 nc         1 ZYI      -0.638100
      2 C2           0.1080    -0.5440     0.1440 cd         1 ZYI       0.619200
      3 O3           0.6850     0.3890     0.9640 os         1 ZYI      -0.254700
      4 C4           1.9530     0.5060     0.5480 ca         1 ZYI       0.013100
      5 C5           2.9710     1.3250     1.0470 ca         1 ZYI      -0.069000
      6 C6           4.2270     1.2430     0.4080 ca         1 ZYI      -0.101000
      7 C7           4.4140     0.3610    -0.6840 ca         1 ZYI       0.112000
      8 Cl8          5.9860     0.2720    -1.4680 cl         1 ZYI      -0.199000
      9 C9           3.3530    -0.4470    -1.1520 ca         1 ZYI      -0.056000
     10 C10          2.1120    -0.3550    -0.5080 ca         1 ZYI       0.093400
     11 N11         -1.1950    -0.9130     0.2780 ns         1 ZYI      -0.422400
     12 C12         -2.1160    -0.4640     1.1880 c          1 ZYI       0.618100
     13 C13         -3.5080    -1.0970     1.0570 c3         1 ZYI      -0.148400
     14 C14         -4.5480    -0.1000     0.4820 c5         1 ZYI      -0.060700
     15 C15         -5.9590    -0.7040     0.2780 c5         1 ZYI      -0.078400
     16 C16         -6.6920     0.4400    -0.4780 c5         1 ZYI      -0.078400
     17 C17         -5.5740     1.1440    -1.3150 c5         1 ZYI      -0.078400
     18 C18         -4.2700     0.3690    -0.9690 c5         1 ZYI      -0.078400
     19 O19         -1.8640     0.3550     2.0590 o          1 ZYI      -0.525100
     20 H5           2.8000     1.9940     1.8870 ha         1 ZYI       0.142000
     21 H6           5.0540     1.8580     0.7550 ha         1 ZYI       0.135000
     22 H9           3.4950    -1.1240    -1.9900 ha         1 ZYI       0.148000
     23 HN11        -1.5360    -1.5990    -0.3760 hn         1 ZYI       0.349500
     24 H13         -3.4600    -1.9800     0.4090 hc         1 ZYI       0.065700
     25 H13A        -3.8360    -1.4060     2.0570 hc         1 ZYI       0.065700
     26 H14         -4.5900     0.7560     1.1690 hc         1 ZYI       0.071700
     27 H15         -5.9260    -1.6220    -0.3220 hc         1 ZYI       0.044700
     28 H15A        -6.4510    -0.9540     1.2250 hc         1 ZYI       0.044700
     29 H16         -7.5000     0.0550    -1.1100 hc         1 ZYI       0.044200
     30 H16A        -7.1490     1.1460     0.2260 hc         1 ZYI       0.044200
     31 H17         -5.7850     1.1190    -2.3900 hc         1 ZYI       0.044200
     32 H17A        -5.4890     2.2010    -1.0330 hc         1 ZYI       0.044200
     33 H18         -3.3820     1.0070    -1.0460 hc         1 ZYI       0.044700
     34 H18A        -4.1190    -0.4790    -1.6490 hc         1 ZYI       0.044700
@<TRIPOS>BOND
     1     1     2 2   
     2     1    10 1   
     3     2     3 1   
     4     2    11 1   
     5     3     4 1   
     6     4     5 ar  
     7     4    10 ar  
     8     5     6 ar  
     9     5    20 1   
    10     6     7 ar  
    11     6    21 1   
    12     7     8 1   
    13     7     9 ar  
    14     9    10 ar  
    15     9    22 1   
    16    11    12 1   
    17    11    23 1   
    18    12    13 1   
    19    12    19 2   
    20    13    14 1   
    21    13    24 1   
    22    13    25 1   
    23    14    15 1   
    24    14    18 1   
    25    14    26 1   
    26    15    16 1   
    27    15    27 1   
    28    15    28 1   
    29    16    17 1   
    30    16    29 1   
    31    16    30 1   
    32    17    18 1   
    33    17    31 1   
    34    17    32 1   
    35    18    33 1   
    36    18    34 1   
@<TRIPOS>SUBSTRUCTURE
     1 ZYI         1 TEMP              0 ****  ****    0 ROOT
