@<TRIPOS>MOLECULE
ZYI
   34    36     1     0     0
SMALL
bcc


@<TRIPOS>ATOM
      1 N1           1.2740    -1.4380    -0.3740 nc         1 ZYI      -0.638100
      2 C2           0.3360    -0.6490     0.0280 cd         1 ZYI       0.619200
      3 O3           0.7200     0.5660     0.4430 os         1 ZYI      -0.254700
      4 C4           2.0750     0.5590     0.2880 ca         1 ZYI       0.013100
      5 C5           2.9780     1.5600     0.5610 ca         1 ZYI      -0.087000
      6 C6           4.3100     1.2640     0.2970 ca         1 ZYI      -0.119000
      7 C7           4.6710     0.0160    -0.2130 ca         1 ZYI       0.020400
      8 CL8          6.3510    -0.2940    -0.5210 cl         1 ZYI      -0.107400
      9 C9           3.7510    -0.9860    -0.4850 ca         1 ZYI      -0.074000
     10 C10          2.4220    -0.6870    -0.2210 ca         1 ZYI       0.093400
     11 N11         -0.9840    -0.9700     0.0410 ns         1 ZYI      -0.489400
     12 C12         -2.0490    -0.2140     0.4960 c          1 ZYI       0.685100
     13 C13         -3.3700    -0.9310     0.3720 c3         1 ZYI      -0.148400
     14 C14         -4.5790    -0.0110     0.3840 c5         1 ZYI      -0.060700
     15 C15         -5.9020    -0.7930     0.3700 c5         1 ZYI      -0.078400
     16 C16         -6.9400     0.1400    -0.2910 c5         1 ZYI      -0.078400
     17 C17         -6.1550     1.3830    -0.7490 c5         1 ZYI      -0.078400
     18 C18         -4.7060     0.9100    -0.8290 c5         1 ZYI      -0.078400
     19 O19         -1.9110     0.8910     0.9630 o          1 ZYI      -0.525100
     20 H5           2.6830     2.5220     0.9560 ha         1 ZYI       0.160000
     21 H6           5.0710     2.0070     0.4900 ha         1 ZYI       0.153000
     22 H9           4.0520    -1.9460    -0.8800 ha         1 ZYI       0.166000
     23 HN11        -1.1840    -1.8920    -0.3220 hn         1 ZYI       0.349500
     24 H13         -3.3770    -1.5450    -0.5340 hc         1 ZYI       0.065700
     25 H13A        -3.4250    -1.6360     1.2100 hc         1 ZYI       0.065700
     26 H14         -4.5470     0.6090     1.2850 hc         1 ZYI       0.071700
     27 H15         -5.7850    -1.7060    -0.2200 hc         1 ZYI       0.044700
     28 H15A        -6.1950    -1.1050     1.3730 hc         1 ZYI       0.044700
     29 H16         -7.4050    -0.3550    -1.1440 hc         1 ZYI       0.044200
     30 H16A        -7.7480     0.4050     0.3930 hc         1 ZYI       0.044200
     31 H17         -6.5230     1.7900    -1.6910 hc         1 ZYI       0.044200
     32 H17A        -6.2360     2.1770    -0.0020 hc         1 ZYI       0.044200
     33 H18         -3.9860     1.7300    -0.8270 hc         1 ZYI       0.044700
     34 H18A        -4.5460     0.3340    -1.7470 hc         1 ZYI       0.044700
@<TRIPOS>BOND
     1     1     2 2   
     2     1    10 1   
     3     2     3 1   
     4     2    11 1   
     5     3     4 1   
     6     4     5 ar  
     7     4    10 ar  
     8     5     6 ar  
     9     5    20 1   
    10     6     7 ar  
    11     6    21 1   
    12     7     8 1   
    13     7     9 ar  
    14     9    10 ar  
    15     9    22 1   
    16    11    12 1   
    17    11    23 1   
    18    12    13 1   
    19    12    19 2   
    20    13    14 1   
    21    13    24 1   
    22    13    25 1   
    23    14    15 1   
    24    14    18 1   
    25    14    26 1   
    26    15    16 1   
    27    15    27 1   
    28    15    28 1   
    29    16    17 1   
    30    16    29 1   
    31    16    30 1   
    32    17    18 1   
    33    17    31 1   
    34    17    32 1   
    35    18    33 1   
    36    18    34 1   
@<TRIPOS>SUBSTRUCTURE
     1 ZYI         1 TEMP              0 ****  ****    0 ROOT
