@<TRIPOS>MOLECULE
ZYJ
   38    39     1     0     0
SMALL
bcc


@<TRIPOS>ATOM
      1 C            0.1400     4.3050     0.5970 c          1 ZYJ       0.942600
      2 N           -2.1740     3.5030     0.5850 n7         1 ZYJ      -0.747200
      3 O            0.9470     3.4580     0.1590 o          1 ZYJ      -0.834300
      4 N1          -1.6610    -0.5280     2.5290 n2         1 ZYJ      -0.373200
      5 O2          -2.0880     0.4170     1.6710 os         1 ZYJ      -0.161300
      6 C4           4.0220    -1.7200     5.0270 c3         1 ZYJ       0.121700
      7 C6           0.9540    -3.5960     5.5600 ca         1 ZYJ       0.057100
      8 C7           1.8270    -2.6110     5.0720 ca         1 ZYJ       0.117100
      9 C9          -0.3740    -3.5920     5.1640 ca         1 ZYJ      -0.121000
     10 CA          -1.0290     3.7780     1.4620 c5         1 ZYJ       0.014500
     11 CB          -0.7310     2.4420     2.1560 c5         1 ZYJ      -0.108400
     12 CD          -1.9290     2.1680     0.0610 c5         1 ZYJ       0.157800
     13 CG          -1.1610     1.3740     1.1370 c5         1 ZYJ       0.062100
     14 C10          1.3360    -1.6450     4.2020 ca         1 ZYJ      -0.199000
     15 C11         -0.8610    -2.6250     4.2990 ca         1 ZYJ      -0.129000
     16 C12         -0.0040    -1.6440     3.8100 ca         1 ZYJ      -0.077900
     17 C13         -0.4430    -0.5880     2.8920 ce         1 ZYJ       0.333800
     18 C14          1.9980    -5.6700     5.8170 c3         1 ZYJ       0.128700
     19 O51          0.1570     5.5330     0.3840 o          1 ZYJ      -0.834300
     20 HN          -3.0120     3.4760     1.1550 hn         1 ZYJ       0.311800
     21 H4           4.9800    -1.9660     5.4770 h1         1 ZYJ       0.041367
     22 H4A          4.1250    -1.7570     3.9390 h1         1 ZYJ       0.041367
     23 H4B          3.7440    -0.7040     5.3200 h1         1 ZYJ       0.041367
     24 H9          -1.0360    -4.3560     5.5520 ha         1 ZYJ       0.136000
     25 HA          -1.3140     4.5480     2.1820 h1         1 ZYJ       0.048700
     26 HB           0.3080     2.3450     2.4680 hc         1 ZYJ       0.038200
     27 HBA         -1.3520     2.3540     3.0530 hc         1 ZYJ       0.038200
     28 HD          -2.8630     1.6790    -0.2190 h1         1 ZYJ       0.058200
     29 HDA         -1.3160     2.2270    -0.8390 h1         1 ZYJ       0.058200
     30 HG          -0.3100     0.8430     0.7000 h1         1 ZYJ       0.065700
     31 H10          1.9890    -0.8730     3.8140 ha         1 ZYJ       0.144000
     32 H11         -1.9020    -2.6390     4.0060 ha         1 ZYJ       0.154000
     33 H13          0.3290     0.1060     2.5670 h4         1 ZYJ       0.021800
     34 H14          2.3420    -6.3270     6.6140 h1         1 ZYJ       0.030033
     35 H14A         1.2700    -6.2120     5.2060 h1         1 ZYJ       0.030033
     36 H14B         2.8510    -5.4040     5.1890 h1         1 ZYJ       0.030033
     37 O5           1.4110    -4.5320     6.4340 os         1 ZYJ      -0.325900
     38 O4           3.0970    -2.6780     5.5020 os         1 ZYJ      -0.312900
@<TRIPOS>BOND
     1     1     3 1   
     2     1    10 1   
     3     1    19 1   
     4     2    10 1   
     5     2    12 1   
     6     2    20 1   
     7     4     5 1   
     8     4    17 2   
     9     5    13 1   
    10     6    21 1   
    11     6    22 1   
    12     6    23 1   
    13     6    38 1   
    14     7     8 ar  
    15     7     9 ar  
    16     7    37 1   
    17     8    14 ar  
    18     8    38 1   
    19     9    15 ar  
    20     9    24 1   
    21    10    11 1   
    22    10    25 1   
    23    11    13 1   
    24    11    26 1   
    25    11    27 1   
    26    12    13 1   
    27    12    28 1   
    28    12    29 1   
    29    13    30 1   
    30    14    16 ar  
    31    14    31 1   
    32    15    16 ar  
    33    15    32 1   
    34    16    17 1   
    35    17    33 1   
    36    18    34 1   
    37    18    35 1   
    38    18    36 1   
    39    18    37 1   
@<TRIPOS>SUBSTRUCTURE
     1 ZYJ         1 TEMP              0 ****  ****    0 ROOT
