@<TRIPOS>MOLECULE
ZYJ
   38    39     1     0     0
SMALL
No Charge or Current Charge


@<TRIPOS>ATOM
      1 C            0.1290     4.1490     2.1280 c          1 ZYJ       0.732000
      2 N           -2.2190     3.5530     1.0730 n7         1 ZYJ      -0.802400
      3 O            1.0860     3.5210     1.6890 o          1 ZYJ      -0.729000
      4 N1          -1.7230    -0.9250     1.5430 n2         1 ZYJ      -0.274700
      5 O2          -2.0280     0.2720     0.8000 os         1 ZYJ      -0.283000
      6 C4           4.1000    -2.7700     3.6830 c3         1 ZYJ       0.144900
      7 C6           0.7800    -3.1600     5.4660 ca         1 ZYJ       0.057100
      8 C7           1.7430    -2.8110     4.4690 ca         1 ZYJ       0.117100
      9 C9          -0.5740    -2.8520     5.2480 ca         1 ZYJ      -0.103000
     10 CA          -1.3070     3.4610     2.2640 c5         1 ZYJ       0.014500
     11 CB          -1.2040     1.9170     2.4490 c5         1 ZYJ      -0.108400
     12 CD          -1.6280     2.5840     0.1130 c5         1 ZYJ       0.157800
     13 CG          -1.0990     1.3890     0.9770 c5         1 ZYJ       0.085300
     14 C10          1.3030    -2.1620     3.2880 ca         1 ZYJ      -0.181000
     15 C11         -0.9940    -2.2100     4.0740 ca         1 ZYJ      -0.111000
     16 C12         -0.0580    -1.8580     3.0820 ca         1 ZYJ      -0.077900
     17 C13         -0.4750    -1.1740     1.8160 ce         1 ZYJ       0.333800
     18 C14          2.3720    -4.2000     7.0980 c3         1 ZYJ       0.151900
     19 O51          0.2560     5.3070     2.5090 o          1 ZYJ      -0.729000
     20 HN          -3.1380     3.1910     1.3520 hn         1 ZYJ       0.367000
     21 H4           5.0850    -3.0930     4.0420 h1         1 ZYJ       0.041367
     22 H4A          3.9060    -3.2730     2.7270 h1         1 ZYJ       0.041367
     23 H4B          4.1400    -1.6860     3.5120 h1         1 ZYJ       0.041367
     24 H9          -1.3100    -3.1160     6.0040 ha         1 ZYJ       0.118000
     25 HA          -1.7840     3.9170     3.1430 h1         1 ZYJ       0.048700
     26 HB          -0.3480     1.6220     3.0660 hc         1 ZYJ       0.038200
     27 HBA         -2.1010     1.5360     2.9510 hc         1 ZYJ       0.038200
     28 HD          -2.3610     2.2640    -0.6410 h1         1 ZYJ       0.058200
     29 HDA         -0.7910     3.0500    -0.4280 h1         1 ZYJ       0.058200
     30 HG          -0.0800     1.1170     0.6720 h1         1 ZYJ       0.065700
     31 H10          2.0090    -1.8840     2.5120 ha         1 ZYJ       0.126000
     32 H11         -2.0510    -1.9880     3.9430 ha         1 ZYJ       0.136000
     33 H13          0.3180    -0.9640     1.0950 h4         1 ZYJ       0.021800
     34 H14          2.3160    -4.6780     8.0840 h1         1 ZYJ       0.030033
     35 H14A         2.8070    -4.9260     6.3990 h1         1 ZYJ       0.030033
     36 H14B         3.0410    -3.3340     7.1840 h1         1 ZYJ       0.030033
     37 O5           1.0590    -3.7960     6.6710 os         1 ZYJ      -0.349100
     38 O4           3.0860    -3.0990     4.6500 os         1 ZYJ      -0.336100
@<TRIPOS>BOND
     1     1     3 1   
     2     1    10 1   
     3     1    19 1   
     4     2    10 1   
     5     2    12 1   
     6     2    20 1   
     7     4     5 1   
     8     4    17 2   
     9     5    13 1   
    10     6    21 1   
    11     6    22 1   
    12     6    23 1   
    13     6    38 1   
    14     7     8 ar  
    15     7     9 ar  
    16     7    37 1   
    17     8    14 ar  
    18     8    38 1   
    19     9    15 ar  
    20     9    24 1   
    21    10    11 1   
    22    10    25 1   
    23    11    13 1   
    24    11    26 1   
    25    11    27 1   
    26    12    13 1   
    27    12    28 1   
    28    12    29 1   
    29    13    30 1   
    30    14    16 ar  
    31    14    31 1   
    32    15    16 ar  
    33    15    32 1   
    34    16    17 1   
    35    17    33 1   
    36    18    34 1   
    37    18    35 1   
    38    18    36 1   
    39    18    37 1   
@<TRIPOS>SUBSTRUCTURE
     1 ZYJ         1 TEMP              0 ****  ****    0 ROOT
