@<TRIPOS>MOLECULE
ZYK
   39    40     1     0     0
SMALL
No Charge or Current Charge


@<TRIPOS>ATOM
      1 C            3.8100    -0.9330    -1.4300 c          1 ZYK       0.730000
      2 N            2.1900    -1.7630     0.4820 n7         1 ZYK      -0.841400
      3 O            4.9340    -0.4540    -1.3330 o          1 ZYK      -0.727500
      4 C1          -1.0510     1.2870     2.5750 c          1 ZYK       0.609700
      5 N1           0.3180     1.3770     2.7890 ns         1 ZYK      -0.362400
      6 O1           1.1900     1.3640     1.6360 os         1 ZYK      -0.239100
      7 C2          -1.9420     1.5520     3.7770 ca         1 ZYK      -0.147600
      8 O2          -1.5160     1.0000     1.4780 o          1 ZYK      -0.564100
      9 C3          -3.3490     1.5390     3.6190 ca         1 ZYK      -0.123000
     10 C4          -1.4110     1.8100     5.0630 ca         1 ZYK      -0.077000
     11 C5          -2.2590     2.0510     6.1560 ca         1 ZYK      -0.187000
     12 C6          -3.6610     2.0400     5.9910 ca         1 ZYK       0.124100
     13 C7          -4.0540     2.5450     8.3830 c3         1 ZYK       0.146900
     14 C8          -4.2100     1.7810     4.7140 ca         1 ZYK       0.096100
     15 C9          -6.2430     1.5210     3.3190 c3         1 ZYK       0.144900
     16 CA           2.6960    -0.6110    -0.3350 c5         1 ZYK       0.032500
     17 CB           3.2200     0.3380     0.7830 c5         1 ZYK      -0.047400
     18 CD           1.3550    -1.1040     1.5150 c5         1 ZYK       0.126800
     19 CG           2.0920     0.2440     1.8580 c5         1 ZYK       0.130300
     20 O6           3.5140    -1.6710    -2.3630 o          1 ZYK      -0.727500
     21 HN           1.6220    -2.3990    -0.0960 hn         1 ZYK       0.417000
     22 HN1          0.7010     1.7800     3.6360 hn         1 ZYK       0.311500
     23 H3          -3.7600     1.3400     2.6340 ha         1 ZYK       0.141000
     24 H4          -0.3370     1.8220     5.2380 ha         1 ZYK       0.124000
     25 H5          -1.8070     2.2440     7.1250 ha         1 ZYK       0.118000
     26 H7          -4.9030     2.7000     9.0600 h1         1 ZYK       0.038700
     27 H7A         -3.4620     1.7040     8.7670 h1         1 ZYK       0.038700
     28 H7B         -3.4350     3.4510     8.4020 h1         1 ZYK       0.038700
     29 H9          -7.3320     1.5630     3.4430 h1         1 ZYK       0.040700
     30 H9A         -5.9560     2.2720     2.5720 h1         1 ZYK       0.040700
     31 H9B         -5.9830     0.5250     2.9380 h1         1 ZYK       0.040700
     32 HA           1.8530    -0.1380    -0.8600 h1         1 ZYK       0.008700
     33 HB           4.1680    -0.0200     1.1990 hc         1 ZYK       0.054700
     34 HBA          3.3860     1.3600     0.4240 hc         1 ZYK       0.054700
     35 HD           0.3530    -0.9100     1.1090 h1         1 ZYK       0.025200
     36 HDA          1.2380    -1.7460     2.3980 h1         1 ZYK       0.025200
     37 HG           2.5030     0.2770     2.8770 h1         1 ZYK       0.034700
     38 O3          -4.5230     2.2740     7.0510 os         1 ZYK      -0.322100
     39 O4          -5.5890     1.7740     4.5760 os         1 ZYK      -0.328100
@<TRIPOS>BOND
     1     1     3 1   
     2     1    16 1   
     3     1    20 1   
     4     2    16 1   
     5     2    18 1   
     6     2    21 1   
     7     4     5 1   
     8     4     7 1   
     9     4     8 2   
    10     5     6 1   
    11     5    22 1   
    12     6    19 1   
    13     7     9 ar  
    14     7    10 ar  
    15     9    14 ar  
    16     9    23 1   
    17    10    11 ar  
    18    10    24 1   
    19    11    12 ar  
    20    11    25 1   
    21    12    14 ar  
    22    12    38 1   
    23    13    26 1   
    24    13    27 1   
    25    13    28 1   
    26    13    38 1   
    27    14    39 1   
    28    15    29 1   
    29    15    30 1   
    30    15    31 1   
    31    15    39 1   
    32    16    17 1   
    33    16    32 1   
    34    17    19 1   
    35    17    33 1   
    36    17    34 1   
    37    18    19 1   
    38    18    35 1   
    39    18    36 1   
    40    19    37 1   
@<TRIPOS>SUBSTRUCTURE
     1 ZYK         1 TEMP              0 ****  ****    0 ROOT
