@<TRIPOS>MOLECULE
ZYK
   39    40     1     0     0
SMALL
abcg2


@<TRIPOS>ATOM
      1 C            4.1040    -1.2170    -0.9340 c          1 ZYK       0.730000
      2 N            2.4890    -1.6320     0.9610 n7         1 ZYK      -0.841400
      3 O            4.4970    -0.3970    -1.7900 o          1 ZYK      -0.727500
      4 C1          -1.2240     1.2320     2.4830 c          1 ZYK       0.609700
      5 N1           0.0980     1.5110     2.6150 ns         1 ZYK      -0.362400
      6 O1           0.8820     1.4960     1.4980 os         1 ZYK      -0.239100
      7 C2          -2.0150     1.4510     3.7250 ca         1 ZYK      -0.147600
      8 O2          -1.7230     0.8180     1.4520 o          1 ZYK      -0.564100
      9 C3          -3.3890     1.6800     3.5880 ca         1 ZYK      -0.123000
     10 C4          -1.4580     1.4060     4.9930 ca         1 ZYK      -0.077000
     11 C5          -2.2520     1.6100     6.1170 ca         1 ZYK      -0.187000
     12 C6          -3.6090     1.8600     5.9860 ca         1 ZYK       0.124100
     13 C7          -3.9310     2.0800     8.3190 c3         1 ZYK       0.146900
     14 C8          -4.1860     1.8900     4.6950 ca         1 ZYK       0.096100
     15 C9          -6.1450     2.1630     3.3990 c3         1 ZYK       0.144900
     16 CA           2.8100    -0.8230    -0.2050 c5         1 ZYK       0.032500
     17 CB           2.8240     0.5950     0.3840 c5         1 ZYK      -0.047400
     18 CD           1.3920    -0.9350     1.6000 c5         1 ZYK       0.126800
     19 CG           1.9070     0.5090     1.6130 c5         1 ZYK       0.130300
     20 O6           4.6260    -2.3070    -0.6390 o          1 ZYK      -0.727500
     21 HN           2.2490    -2.5810     0.7120 hn         1 ZYK       0.417000
     22 HN1          0.4110     2.1750     3.3120 hn         1 ZYK       0.311500
     23 H3          -3.8140     1.6990     2.5940 ha         1 ZYK       0.141000
     24 H4          -0.4080     1.1910     5.1390 ha         1 ZYK       0.124000
     25 H5          -1.7910     1.5620     7.0930 ha         1 ZYK       0.118000
     26 H7          -4.7690     2.2810     8.9810 h1         1 ZYK       0.038700
     27 H7A         -3.4920     1.1150     8.5860 h1         1 ZYK       0.038700
     28 H7B         -3.1770     2.8600     8.4540 h1         1 ZYK       0.038700
     29 H9          -7.1950     2.3740     3.5890 h1         1 ZYK       0.040700
     30 H9A         -5.7380     2.9480     2.7570 h1         1 ZYK       0.040700
     31 H9B         -6.0690     1.2050     2.8760 h1         1 ZYK       0.040700
     32 HA           1.9950    -0.8630    -0.9520 h1         1 ZYK       0.008700
     33 HB           3.8300     0.8860     0.6860 hc         1 ZYK       0.054700
     34 HBA          2.4730     1.3400    -0.3300 hc         1 ZYK       0.054700
     35 HD           0.4550    -0.9710     1.0220 h1         1 ZYK       0.025200
     36 HDA          1.1890    -1.3290     2.5980 h1         1 ZYK       0.025200
     37 HG           2.4750     0.7000     2.5290 h1         1 ZYK       0.034700
     38 O3          -4.4520     2.0760     7.0040 os         1 ZYK      -0.322100
     39 O4          -5.5080     2.1290     4.6600 os         1 ZYK      -0.328100
@<TRIPOS>BOND
     1     1     3 1   
     2     1    16 1   
     3     1    20 1   
     4     2    16 1   
     5     2    18 1   
     6     2    21 1   
     7     4     5 1   
     8     4     7 1   
     9     4     8 2   
    10     5     6 1   
    11     5    22 1   
    12     6    19 1   
    13     7     9 ar  
    14     7    10 ar  
    15     9    14 ar  
    16     9    23 1   
    17    10    11 ar  
    18    10    24 1   
    19    11    12 ar  
    20    11    25 1   
    21    12    14 ar  
    22    12    38 1   
    23    13    26 1   
    24    13    27 1   
    25    13    28 1   
    26    13    38 1   
    27    14    39 1   
    28    15    29 1   
    29    15    30 1   
    30    15    31 1   
    31    15    39 1   
    32    16    17 1   
    33    16    32 1   
    34    17    19 1   
    35    17    33 1   
    36    17    34 1   
    37    18    19 1   
    38    18    35 1   
    39    18    36 1   
    40    19    37 1   
@<TRIPOS>SUBSTRUCTURE
     1 ZYK         1 TEMP              0 ****  ****    0 ROOT
