@<TRIPOS>MOLECULE
ZYL
   47    48     1     0     0
SMALL
abcg2


@<TRIPOS>ATOM
      1 CAA          9.6780     1.9630     0.0050 c3         1 ZYL      -0.088100
      2 OAB         -4.5540     3.1360     0.1090 o          1 ZYL      -0.708000
      3 OAD         -3.8250     2.5250     2.1280 o          1 ZYL      -0.708000
      4 OAE         -6.1850     0.4420     1.6150 oh         1 ZYL      -0.498100
      5 CAF          0.3090    -2.6360     1.2860 ca         1 ZYL      -0.081000
      6 CAG         -0.8230    -2.4470     0.5140 ca         1 ZYL      -0.130000
      7 CAH          1.5150    -2.0250     0.9600 ca         1 ZYL      -0.201000
      8 CAI         -5.1720    -1.3530     0.3850 cc         1 ZYL      -0.341000
      9 CAJ         -4.1310    -1.7550    -0.3800 cd         1 ZYL      -0.061400
     10 CAK          0.4350    -1.0110    -0.9410 ca         1 ZYL      -0.109000
     11 CAL          8.5520     1.1890     0.6750 c3         1 ZYL      -0.075400
     12 CAM          7.3160     1.0650    -0.2080 c3         1 ZYL      -0.075400
     13 CAN          6.1890     0.2780     0.4480 c3         1 ZYL      -0.074400
     14 CAO          4.9380     0.2050    -0.4210 c3         1 ZYL      -0.082400
     15 CAP          3.8550    -0.6250     0.2350 c3         1 ZYL       0.168600
     16 OAR          2.6920    -0.5690    -0.5770 os         1 ZYL      -0.350100
     17 CAS         -4.1850     2.3060     0.9590 c          1 ZYL       0.748200
     18 CAT         -0.7600    -1.6240    -0.6100 ca         1 ZYL      -0.051300
     19 CAU          1.5810    -1.2100    -0.1660 ca         1 ZYL       0.138100
     20 CAV         -5.1830    -0.0110     0.8480 cc         1 ZYL       0.150100
     21 CAW         -4.1790     0.8530     0.5090 cd         1 ZYL      -0.260400
     22 CAX         -3.0840     0.4140    -0.2980 c          1 ZYL       0.572200
     23 NAY         -3.1170    -0.9190    -0.7090 n          1 ZYL      -0.292000
     24 H1           9.3630     2.9780    -0.2470 hc         1 ZYL       0.029700
     25 H2          10.5540     2.0400     0.6500 hc         1 ZYL       0.029700
     26 H3           9.9900     1.4760    -0.9210 hc         1 ZYL       0.029700
     27 H5          -6.8320    -0.2550     1.7780 ho         1 ZYL       0.431000
     28 H6           0.2640    -3.2730     2.1610 ha         1 ZYL       0.102000
     29 H7          -1.7490    -2.9370     0.7900 ha         1 ZYL       0.114000
     30 H8           2.3790    -2.1970     1.5870 ha         1 ZYL       0.105000
     31 H9          -5.9630    -2.0500     0.6260 ha         1 ZYL       0.171000
     32 H10         -4.0660    -2.7620    -0.7660 h4         1 ZYL       0.169000
     33 H11          0.4890    -0.3590    -1.8050 ha         1 ZYL       0.133000
     34 H12          8.9050     0.1900     0.9480 hc         1 ZYL       0.035700
     35 H13          8.2750     1.6800     1.6140 hc         1 ZYL       0.035700
     36 H14          6.9570     2.0660    -0.4710 hc         1 ZYL       0.039200
     37 H15          7.5910     0.5840    -1.1530 hc         1 ZYL       0.039200
     38 H16          6.5400    -0.7340     0.6770 hc         1 ZYL       0.037200
     39 H17          5.9370     0.7380     1.4090 hc         1 ZYL       0.037200
     40 H18          4.5620     1.2160    -0.6030 hc         1 ZYL       0.055200
     41 H19          5.1890    -0.2230    -1.3960 hc         1 ZYL       0.055200
     42 H20          4.1940    -1.6620     0.3500 h1         1 ZYL       0.030200
     43 H21          3.6350    -0.2380     1.2370 h1         1 ZYL       0.030200
     44 H22         -1.7630    -0.7310    -2.2870 h1         1 ZYL       0.054200
     45 H23         -2.2830    -2.3660    -1.9210 h1         1 ZYL       0.054200
     46 CAQ         -1.9800    -1.4190    -1.4720 c3         1 ZYL       0.141300
     47 OAC         -2.1360     1.1250    -0.6330 o          1 ZYL      -0.554000
@<TRIPOS>BOND
     1     1    11 1   
     2     1    24 1   
     3     1    25 1   
     4     1    26 1   
     5     2    17 1   
     6     3    17 1   
     7     4    20 1   
     8     4    27 1   
     9     5     6 ar  
    10     5     7 ar  
    11     5    28 1   
    12     6    18 ar  
    13     6    29 1   
    14     7    19 ar  
    15     7    30 1   
    16     8     9 2   
    17     8    20 1   
    18     8    31 1   
    19     9    23 1   
    20     9    32 1   
    21    10    18 ar  
    22    10    19 ar  
    23    10    33 1   
    24    11    12 1   
    25    11    34 1   
    26    11    35 1   
    27    12    13 1   
    28    12    36 1   
    29    12    37 1   
    30    13    14 1   
    31    13    38 1   
    32    13    39 1   
    33    14    15 1   
    34    14    40 1   
    35    14    41 1   
    36    15    16 1   
    37    15    42 1   
    38    15    43 1   
    39    16    19 1   
    40    17    21 1   
    41    18    46 1   
    42    20    21 2   
    43    21    22 1   
    44    22    23 1   
    45    22    47 2   
    46    23    46 1   
    47    44    46 1   
    48    45    46 1   
@<TRIPOS>SUBSTRUCTURE
     1 ZYL         1 TEMP              0 ****  ****    0 ROOT
