@<TRIPOS>MOLECULE
ZYL
   47    48     1     0     0
SMALL
No Charge or Current Charge


@<TRIPOS>ATOM
      1 CAA          9.5000     2.3520     0.1040 c3         1 ZYL      -0.088100
      2 OAB         -3.2350     3.3370    -0.4130 o          1 ZYL      -0.708000
      3 OAD         -4.8530     3.3280     0.9380 o          1 ZYL      -0.708000
      4 OAE         -5.9190     0.9790     1.7850 oh         1 ZYL      -0.498100
      5 CAF          0.4410    -3.3900     0.9120 ca         1 ZYL      -0.081000
      6 CAG         -0.7530    -3.1120     0.2250 ca         1 ZYL      -0.130000
      7 CAH          1.5670    -2.5690     0.7300 ca         1 ZYL      -0.201000
      8 CAI         -4.9440    -0.9560     0.9450 cc         1 ZYL      -0.341000
      9 CAJ         -4.0320    -1.6250     0.1760 cd         1 ZYL      -0.061400
     10 CAK          0.3010    -1.1930    -0.8280 ca         1 ZYL      -0.109000
     11 CAL          8.5510     1.2370     0.5840 c3         1 ZYL      -0.075400
     12 CAM          7.1430     1.3280    -0.0460 c3         1 ZYL      -0.075400
     13 CAN          6.1920     0.2110     0.4350 c3         1 ZYL      -0.074400
     14 CAO          4.7840     0.3020    -0.1950 c3         1 ZYL      -0.082400
     15 CAP          3.8380    -0.8140     0.2870 c3         1 ZYL       0.168600
     16 OAR          2.5710    -0.6230    -0.3640 os         1 ZYL      -0.350100
     17 CAS         -4.0460     2.7150     0.2550 c          1 ZYL       0.748200
     18 CAT         -0.8310    -2.0120    -0.6490 ca         1 ZYL      -0.051300
     19 CAU          1.4980    -1.4630    -0.1450 ca         1 ZYL       0.138100
     20 CAV         -4.9670     0.4680     0.9860 cc         1 ZYL       0.150100
     21 CAW         -4.0520     1.2080     0.2380 cd         1 ZYL      -0.260400
     22 CAX         -3.0470     0.4830    -0.6090 c          1 ZYL       0.572200
     23 NAY         -3.1050    -0.9370    -0.5860 n          1 ZYL      -0.292000
     24 H1           9.1000     3.3400     0.3630 hc         1 ZYL       0.029700
     25 H2          10.4840     2.2450     0.5770 hc         1 ZYL       0.029700
     26 H3           9.6350     2.3050    -0.9830 hc         1 ZYL       0.029700
     27 H5          -6.3990     0.2200     2.1720 ho         1 ZYL       0.431000
     28 H6           0.4930    -4.2420     1.5870 ha         1 ZYL       0.102000
     29 H7          -1.6180    -3.7540     0.3750 ha         1 ZYL       0.114000
     30 H8           2.4770    -2.8060     1.2730 ha         1 ZYL       0.105000
     31 H9          -5.6600    -1.5250     1.5330 ha         1 ZYL       0.171000
     32 H10         -3.9640    -2.7070     0.1070 h4         1 ZYL       0.169000
     33 H11          0.2540    -0.3390    -1.4990 ha         1 ZYL       0.133000
     34 H12          8.9940     0.2630     0.3420 hc         1 ZYL       0.035700
     35 H13          8.4640     1.2880     1.6760 hc         1 ZYL       0.035700
     36 H14          6.7040     2.3040     0.1960 hc         1 ZYL       0.039200
     37 H15          7.2340     1.2790    -1.1380 hc         1 ZYL       0.039200
     38 H16          6.6320    -0.7650     0.1930 hc         1 ZYL       0.037200
     39 H17          6.1020     0.2600     1.5280 hc         1 ZYL       0.037200
     40 H18          4.3410     1.2750     0.0490 hc         1 ZYL       0.055200
     41 H19          4.8720     0.2490    -1.2870 hc         1 ZYL       0.055200
     42 H20          4.2640    -1.7930     0.0270 h1         1 ZYL       0.030200
     43 H21          3.7260    -0.7550     1.3770 h1         1 ZYL       0.030200
     44 H22         -1.9040    -1.1770    -2.3250 h1         1 ZYL       0.054200
     45 H23         -2.5900    -2.6610    -1.6930 h1         1 ZYL       0.054200
     46 CAQ         -2.1280    -1.7110    -1.3930 c3         1 ZYL       0.141300
     47 OAC         -2.2010     1.0350    -1.3040 o          1 ZYL      -0.554000
@<TRIPOS>BOND
     1     1    11 1   
     2     1    24 1   
     3     1    25 1   
     4     1    26 1   
     5     2    17 1   
     6     3    17 1   
     7     4    20 1   
     8     4    27 1   
     9     5     6 ar  
    10     5     7 ar  
    11     5    28 1   
    12     6    18 ar  
    13     6    29 1   
    14     7    19 ar  
    15     7    30 1   
    16     8     9 2   
    17     8    20 1   
    18     8    31 1   
    19     9    23 1   
    20     9    32 1   
    21    10    18 ar  
    22    10    19 ar  
    23    10    33 1   
    24    11    12 1   
    25    11    34 1   
    26    11    35 1   
    27    12    13 1   
    28    12    36 1   
    29    12    37 1   
    30    13    14 1   
    31    13    38 1   
    32    13    39 1   
    33    14    15 1   
    34    14    40 1   
    35    14    41 1   
    36    15    16 1   
    37    15    42 1   
    38    15    43 1   
    39    16    19 1   
    40    17    21 1   
    41    18    46 1   
    42    20    21 2   
    43    21    22 1   
    44    22    23 1   
    45    22    47 2   
    46    23    46 1   
    47    44    46 1   
    48    45    46 1   
@<TRIPOS>SUBSTRUCTURE
     1 ZYL         1 TEMP              0 ****  ****    0 ROOT
