@<TRIPOS>MOLECULE
ZYM
   43    44     1     0     0
SMALL
No Charge or Current Charge


@<TRIPOS>ATOM
      1 OAA         -7.7110    -0.5740    -0.4350 o          1 ZYM      -0.692000
      2 OAB         -4.1400     1.1490    -1.4510 o          1 ZYM      -0.627100
      3 OAC         -7.6720     1.5060     0.1490 o          1 ZYM      -0.692000
      4 OAD         -5.5570    -0.9170     1.5370 o          1 ZYM      -0.547100
      5 CAE         -4.7310     1.2290     0.8700 c3         1 ZYM      -0.277400
      6 CAF          6.4960     2.6870    -0.6950 ca         1 ZYM      -0.143000
      7 CAG          6.1420     1.5820    -1.4880 ca         1 ZYM      -0.083500
      8 CAH          6.3650     2.6230     0.7040 ca         1 ZYM      -0.083500
      9 CAI          3.0720    -3.7720     0.2590 ca         1 ZYM      -0.099000
     10 CAJ          1.9750    -3.1890    -0.3990 ca         1 ZYM      -0.111000
     11 CAK          5.6520     0.4110    -0.8820 ca         1 ZYM      -0.155000
     12 CAL          5.8750     1.4520     1.3090 ca         1 ZYM      -0.155000
     13 CAM          4.0980    -2.9580     0.7690 ca         1 ZYM      -0.123000
     14 CAN          2.9250    -0.9800    -0.0310 ca         1 ZYM      -0.133000
     15 CAO         -0.3940    -0.7250    -0.2490 c3         1 ZYM      -0.093400
     16 CAP         -1.6130    -0.0810    -0.9360 c3         1 ZYM       0.109000
     17 CAQ          0.7010    -1.1570    -1.2470 c3         1 ZYM      -0.034100
     18 NAR         -2.6310     0.3160     0.0340 ns         1 ZYM      -0.514900
     19 OAS          5.0430    -0.7880     1.1380 os         1 ZYM      -0.257200
     20 CAT         -7.1800     0.3790     0.1320 c          1 ZYM       0.652000
     21 CAU         -3.8280     0.9040    -0.2960 c          1 ZYM       0.615100
     22 CAV         -5.7890     0.1280     0.9250 c          1 ZYM       0.434100
     23 CAW          1.8950    -1.7900    -0.5470 ca         1 ZYM      -0.057300
     24 CAX          5.5080     0.3510     0.5190 ca         1 ZYM       0.136100
     25 CAY          4.0320    -1.5640     0.6160 ca         1 ZYM       0.100100
     26 HAE         -4.1600     1.2190     1.8050 hc         1 ZYM       0.082200
     27 HAEA        -5.2110     2.1880     0.6540 hc         1 ZYM       0.082200
     28 HAH          6.6440     3.4780     1.3170 ha         1 ZYM       0.110500
     29 HAI          3.1260    -4.8520     0.3740 ha         1 ZYM       0.114000
     30 HAJ          1.1830    -3.8250    -0.7890 ha         1 ZYM       0.121000
     31 HAK          5.3890    -0.4450    -1.4980 ha         1 ZYM       0.127000
     32 HAL          5.7750     1.3990     2.3900 ha         1 ZYM       0.127000
     33 HAM          4.9460    -3.4080     1.2800 ha         1 ZYM       0.124000
     34 HAN          2.8610     0.1010    -0.1290 ha         1 ZYM       0.128000
     35 HAO          0.0330    -0.0130     0.4680 hc         1 ZYM       0.048200
     36 HAOA        -0.7240    -1.6010     0.3230 hc         1 ZYM       0.048200
     37 HAP         -1.2930     0.8080    -1.4970 h1         1 ZYM       0.042200
     38 HAPA        -2.0570    -0.7950    -1.6430 h1         1 ZYM       0.042200
     39 HAQ          0.2710    -1.8590    -1.9720 hc         1 ZYM       0.050200
     40 HAQA         1.0260    -0.2830    -1.8250 hc         1 ZYM       0.050200
     41 HNAR        -2.4610     0.1430     1.0170 hn         1 ZYM       0.312500
     42 HAF          6.8760     3.5920    -1.1630 ha         1 ZYM       0.111000
     43 HAG          6.2500     1.6310    -2.5690 ha         1 ZYM       0.110500
@<TRIPOS>BOND
     1     1    20 1   
     2     2    21 2   
     3     3    20 1   
     4     4    22 2   
     5     5    21 1   
     6     5    22 1   
     7     5    26 1   
     8     5    27 1   
     9     6     7 ar  
    10     6     8 ar  
    11     6    42 1   
    12     7    11 ar  
    13     7    43 1   
    14     8    12 ar  
    15     8    28 1   
    16     9    10 ar  
    17     9    13 ar  
    18     9    29 1   
    19    10    23 ar  
    20    10    30 1   
    21    11    24 ar  
    22    11    31 1   
    23    12    24 ar  
    24    12    32 1   
    25    13    25 ar  
    26    13    33 1   
    27    14    23 ar  
    28    14    25 ar  
    29    14    34 1   
    30    15    16 1   
    31    15    17 1   
    32    15    35 1   
    33    15    36 1   
    34    16    18 1   
    35    16    37 1   
    36    16    38 1   
    37    17    23 1   
    38    17    39 1   
    39    17    40 1   
    40    18    21 1   
    41    18    41 1   
    42    19    24 1   
    43    19    25 1   
    44    20    22 1   
@<TRIPOS>SUBSTRUCTURE
     1 ZYM         1 TEMP              0 ****  ****    0 ROOT
