@<TRIPOS>MOLECULE
ZYM
   43    44     1     0     0
SMALL
abcg2


@<TRIPOS>ATOM
      1 OAA         -7.8670    -1.3120     1.3630 o          1 ZYM      -0.692000
      2 OAB         -4.2150     1.1080    -1.8970 o          1 ZYM      -0.627100
      3 OAC         -7.3590     0.7970     1.9230 o          1 ZYM      -0.692000
      4 OAD         -5.7850    -1.2470    -0.3890 o          1 ZYM      -0.547100
      5 CAE         -5.0940     0.9190     0.3220 c3         1 ZYM      -0.277400
      6 CAF          7.3150     2.0910    -0.6960 ca         1 ZYM      -0.143000
      7 CAG          6.7320     1.0060    -1.3340 ca         1 ZYM      -0.083500
      8 CAH          7.0030     2.3440     0.6350 ca         1 ZYM      -0.083500
      9 CAI          2.8850    -3.3170     0.4030 ca         1 ZYM      -0.099000
     10 CAJ          1.8620    -2.7610    -0.3510 ca         1 ZYM      -0.111000
     11 CAK          5.8450     0.1740    -0.6620 ca         1 ZYM      -0.155000
     12 CAL          6.1150     1.5280     1.3180 ca         1 ZYM      -0.155000
     13 CAM          3.8590    -2.5100     0.9770 ca         1 ZYM      -0.123000
     14 CAN          2.7580    -0.5720     0.0450 ca         1 ZYM      -0.133000
     15 CAO         -0.5710    -0.5500    -0.4060 c3         1 ZYM      -0.093400
     16 CAP         -1.7000     0.1340    -1.1590 c3         1 ZYM       0.109000
     17 CAQ          0.6500    -0.7660    -1.3000 c3         1 ZYM      -0.034100
     18 NAR         -2.8400     0.3360    -0.2910 ns         1 ZYM      -0.514900
     19 OAS          4.7120    -0.3450     1.4160 os         1 ZYM      -0.257200
     20 CAT         -7.2020    -0.2700     1.3070 c          1 ZYM       0.652000
     21 CAU         -4.0150     0.8080    -0.7280 c          1 ZYM       0.615100
     22 CAV         -5.9940    -0.2980     0.3260 c          1 ZYM       0.434100
     23 CAW          1.7890    -1.3810    -0.5380 ca         1 ZYM      -0.057300
     24 CAX          5.5380     0.4410     0.6680 ca         1 ZYM       0.136100
     25 CAY          3.7820    -1.1390     0.7930 ca         1 ZYM       0.100100
     26 HAE         -4.6840     1.0440     1.3290 hc         1 ZYM       0.082200
     27 HAEA        -5.7000     1.8070     0.1370 hc         1 ZYM       0.082200
     28 HAH          7.4490     3.1870     1.1470 ha         1 ZYM       0.110500
     29 HAI          2.9330    -4.3890     0.5410 ha         1 ZYM       0.114000
     30 HAJ          1.1120    -3.4020    -0.7990 ha         1 ZYM       0.121000
     31 HAK          5.4090    -0.6720    -1.1770 ha         1 ZYM       0.127000
     32 HAL          5.8700     1.7260     2.3540 ha         1 ZYM       0.127000
     33 HAM          4.6640    -2.9380     1.5600 ha         1 ZYM       0.124000
     34 HAN          2.7120     0.5040    -0.0830 ha         1 ZYM       0.128000
     35 HAO         -0.2830     0.0560     0.4580 hc         1 ZYM       0.048200
     36 HAOA        -0.9140    -1.5140    -0.0190 hc         1 ZYM       0.048200
     37 HAP         -1.3510     1.0930    -1.5550 h1         1 ZYM       0.042200
     38 HAPA        -1.9960    -0.4730    -2.0180 h1         1 ZYM       0.042200
     39 HAQ          0.3730    -1.4060    -2.1420 hc         1 ZYM       0.050200
     40 HAQA         0.9640     0.1920    -1.7220 hc         1 ZYM       0.050200
     41 HNAR        -2.7290     0.1420     0.6910 hn         1 ZYM       0.312500
     42 HAF          8.0050     2.7320    -1.2280 ha         1 ZYM       0.111000
     43 HAG          6.9690     0.7930    -2.3690 ha         1 ZYM       0.110500
@<TRIPOS>BOND
     1     1    20 1   
     2     2    21 2   
     3     3    20 1   
     4     4    22 2   
     5     5    21 1   
     6     5    22 1   
     7     5    26 1   
     8     5    27 1   
     9     6     7 ar  
    10     6     8 ar  
    11     6    42 1   
    12     7    11 ar  
    13     7    43 1   
    14     8    12 ar  
    15     8    28 1   
    16     9    10 ar  
    17     9    13 ar  
    18     9    29 1   
    19    10    23 ar  
    20    10    30 1   
    21    11    24 ar  
    22    11    31 1   
    23    12    24 ar  
    24    12    32 1   
    25    13    25 ar  
    26    13    33 1   
    27    14    23 ar  
    28    14    25 ar  
    29    14    34 1   
    30    15    16 1   
    31    15    17 1   
    32    15    35 1   
    33    15    36 1   
    34    16    18 1   
    35    16    37 1   
    36    16    38 1   
    37    17    23 1   
    38    17    39 1   
    39    17    40 1   
    40    18    21 1   
    41    18    41 1   
    42    19    24 1   
    43    19    25 1   
    44    20    22 1   
@<TRIPOS>SUBSTRUCTURE
     1 ZYM         1 TEMP              0 ****  ****    0 ROOT
