@<TRIPOS>MOLECULE
ZYN
   53    55     1     0     0
SMALL
abcg2


@<TRIPOS>ATOM
      1 CAA        -37.4970    27.0390   -18.3330 c3         1 ZYN      -0.105100
      2 CAB        -35.0810    26.9490   -19.1780 c3         1 ZYN      -0.105100
      3 CAC        -37.4160    27.8930   -23.7870 c3         1 ZYN       0.083800
      4 CAD        -35.3490    28.7820   -22.7900 c3         1 ZYN       0.083800
      5 OAE        -38.7190    28.7020   -21.4690 o          1 ZYN      -0.583100
      6 OAF        -35.7660    33.9480   -18.5830 o          1 ZYN      -0.614000
      7 OAG        -35.6390    29.1210   -17.2030 o          1 ZYN      -0.520000
      8 OAH        -35.4060    31.7890   -17.2650 oh         1 ZYN      -0.508100
      9 CAK        -38.5090    37.4650   -22.8820 ca         1 ZYN      -0.142000
     10 CAL        -37.3210    36.8750   -22.4660 ca         1 ZYN      -0.079000
     11 CAM        -38.5180    35.5710   -20.8400 ca         1 ZYN      -0.060000
     12 CAN        -37.1930    31.8440   -21.8110 c6         1 ZYN      -0.038200
     13 CAO        -36.3060    33.0530   -22.0440 c6         1 ZYN       0.108000
     14 CAP        -36.0210    35.2910   -20.9890 c3         1 ZYN       0.143300
     15 CAQ        -37.5120    28.9300   -21.5930 c          1 ZYN       0.610300
     16 CAR        -36.0210    33.2820   -19.6120 c          1 ZYN       0.591200
     17 CAS        -39.6920    37.0950   -22.2720 ca         1 ZYN       0.180000
     18 CAT        -37.3150    35.9280   -21.4460 ca         1 ZYN      -0.119300
     19 CAU        -39.7070    36.1520   -21.2520 ca         1 ZYN       0.075000
     20 CAV        -35.8530    31.1650   -18.3590 cc         1 ZYN       0.135900
     21 CAW        -36.7100    31.0660   -20.6200 cd         1 ZYN      -0.096200
     22 CAX        -36.1840    31.8110   -19.5260 cd         1 ZYN      -0.252200
     23 CAY        -36.8140    29.7180   -20.5100 cc         1 ZYN      -0.034600
     24 CAZ        -35.9590    29.7120   -18.2390 c          1 ZYN       0.545200
     25 CBA        -36.4730    27.5550   -19.3390 c3         1 ZYN       0.116700
     26 NBB        -36.7820    28.5610   -22.6590 n          1 ZYN      -0.408800
     27 NBC        -36.1570    33.8500   -20.8210 n          1 ZYN      -0.388800
     28 NBD        -36.4220    29.0490   -19.3630 n          1 ZYN      -0.266000
     29 HAA        -38.4680    27.5050   -18.5050 hc         1 ZYN       0.053367
     30 HAAA       -37.6060    25.9620   -18.4680 hc         1 ZYN       0.053367
     31 HAAB       -37.1850    27.2340   -17.3110 hc         1 ZYN       0.053367
     32 HAB        -34.3980    27.3610   -19.9220 hc         1 ZYN       0.053367
     33 HABA       -34.6780    27.1310   -18.1860 hc         1 ZYN       0.053367
     34 HABB       -35.1520    25.8720   -19.3390 hc         1 ZYN       0.053367
     35 HAC        -38.4800    27.7960   -23.5980 h1         1 ZYN       0.048200
     36 HACA       -37.2550    28.4770   -24.6950 h1         1 ZYN       0.048200
     37 HACB       -36.9760    26.9030   -23.9250 h1         1 ZYN       0.048200
     38 HAD        -34.9380    29.1890   -21.8720 h1         1 ZYN       0.048200
     39 HADA       -34.8570    27.8320   -23.0080 h1         1 ZYN       0.048200
     40 HADB       -35.1500    29.4760   -23.6090 h1         1 ZYN       0.048200
     41 HOAH       -35.4440    32.7620   -17.4900 ho         1 ZYN       0.525000
     42 HAK        -38.5300    38.1970   -23.6790 ha         1 ZYN       0.138000
     43 HAL        -36.3920    37.1500   -22.9510 ha         1 ZYN       0.121000
     44 HAM        -38.5390    34.8300   -20.0530 ha         1 ZYN       0.142000
     45 HAN        -38.2170    32.1870   -21.6300 hc         1 ZYN       0.069200
     46 HANA       -37.2100    31.2350   -22.7130 hc         1 ZYN       0.069200
     47 HAO        -35.3150    32.7480   -22.3950 h1         1 ZYN       0.052700
     48 HAOA       -36.7470    33.6970   -22.8020 h1         1 ZYN       0.052700
     49 HAP        -35.2340    35.4900   -21.7200 h1         1 ZYN       0.075200
     50 HAPA       -35.7060    35.7080   -20.0350 h1         1 ZYN       0.075200
     51 HBA        -36.8250    27.2730   -20.3270 h1         1 ZYN       0.050700
     52 FAI        -40.8510    37.6500   -22.6820 f          1 ZYN      -0.162000
     53 CLAJ       -41.2140    35.7050   -20.5070 cl         1 ZYN      -0.168000
@<TRIPOS>BOND
     1     1    25 1   
     2     1    29 1   
     3     1    30 1   
     4     1    31 1   
     5     2    25 1   
     6     2    32 1   
     7     2    33 1   
     8     2    34 1   
     9     3    26 1   
    10     3    35 1   
    11     3    36 1   
    12     3    37 1   
    13     4    26 1   
    14     4    38 1   
    15     4    39 1   
    16     4    40 1   
    17     5    15 2   
    18     6    16 2   
    19     7    24 2   
    20     8    20 1   
    21     8    41 1   
    22     9    10 ar  
    23     9    17 ar  
    24     9    42 1   
    25    10    18 ar  
    26    10    43 1   
    27    11    18 ar  
    28    11    19 ar  
    29    11    44 1   
    30    12    13 1   
    31    12    21 1   
    32    12    45 1   
    33    12    46 1   
    34    13    27 1   
    35    13    47 1   
    36    13    48 1   
    37    14    18 1   
    38    14    27 1   
    39    14    49 1   
    40    14    50 1   
    41    15    23 1   
    42    15    26 1   
    43    16    22 1   
    44    16    27 1   
    45    17    19 ar  
    46    17    52 1   
    47    19    53 1   
    48    20    22 2   
    49    20    24 1   
    50    21    22 1   
    51    21    23 2   
    52    23    28 1   
    53    24    28 1   
    54    25    28 1   
    55    25    51 1   
@<TRIPOS>SUBSTRUCTURE
     1 ZYN         1 TEMP              0 ****  ****    0 ROOT
