@<TRIPOS>MOLECULE
ZYN
   53    55     1     0     0
SMALL
No Charge or Current Charge


@<TRIPOS>ATOM
      1 CAA        -37.9000    26.9930   -18.4190 c3         1 ZYN      -0.105100
      2 CAB        -35.3320    26.8360   -18.7900 c3         1 ZYN      -0.105100
      3 CAC        -36.8180    27.9370   -24.0760 c3         1 ZYN       0.083800
      4 CAD        -34.9950    29.0970   -22.7590 c3         1 ZYN       0.083800
      5 OAE        -38.3830    28.1970   -21.7670 o          1 ZYN      -0.583100
      6 OAF        -35.7970    34.0220   -18.8420 o          1 ZYN      -0.614000
      7 OAG        -36.1360    29.2360   -17.0940 o          1 ZYN      -0.520000
      8 OAH        -35.7080    31.9160   -17.3400 oh         1 ZYN      -0.508100
      9 CAK        -39.2150    36.7650   -22.8070 ca         1 ZYN      -0.142000
     10 CAL        -37.9450    36.1670   -22.7200 ca         1 ZYN      -0.079000
     11 CAM        -38.0540    36.2910   -20.2900 ca         1 ZYN      -0.060000
     12 CAN        -37.0830    31.7360   -22.0510 c6         1 ZYN      -0.038200
     13 CAO        -36.1430    32.9240   -22.2960 c6         1 ZYN       0.108000
     14 CAP        -35.9900    35.2680   -21.3620 c3         1 ZYN       0.143300
     15 CAQ        -37.3120    28.7930   -21.7680 c          1 ZYN       0.610300
     16 CAR        -36.0250    33.3010   -19.8080 c          1 ZYN       0.591200
     17 CAS        -39.9020    37.1250   -21.6370 ca         1 ZYN       0.180000
     18 CAT        -37.3580    35.9280   -21.4610 ca         1 ZYN      -0.119300
     19 CAU        -39.3240    36.8880   -20.3750 ca         1 ZYN       0.075000
     20 CAV        -36.0700    31.2110   -18.4450 cc         1 ZYN       0.135900
     21 CAW        -36.6800    30.9970   -20.7800 cd         1 ZYN      -0.096200
     22 CAX        -36.2420    31.8230   -19.6760 cd         1 ZYN      -0.252200
     23 CAY        -36.8320    29.6150   -20.6060 cc         1 ZYN      -0.034600
     24 CAZ        -36.2690    29.7460   -18.2050 c          1 ZYN       0.545200
     25 CBA        -36.6700    27.4890   -19.2110 c3         1 ZYN       0.116700
     26 NBB        -36.4150    28.6770   -22.8610 n          1 ZYN      -0.408800
     27 NBC        -36.0860    33.8130   -21.1180 n          1 ZYN      -0.388800
     28 NBD        -36.6120    28.9860   -19.3540 n          1 ZYN      -0.266000
     29 HAA        -38.8190    27.4250   -18.8310 hc         1 ZYN       0.053367
     30 HAAA       -37.9800    25.9020   -18.4820 hc         1 ZYN       0.053367
     31 HAAB       -37.8340    27.2670   -17.3600 hc         1 ZYN       0.053367
     32 HAB        -34.5090    27.2180   -19.4060 hc         1 ZYN       0.053367
     33 HABA       -35.0950    27.0240   -17.7380 hc         1 ZYN       0.053367
     34 HABB       -35.3810    25.7500   -18.9290 hc         1 ZYN       0.053367
     35 HAC        -37.8320    28.2320   -24.3760 h1         1 ZYN       0.048200
     36 HACA       -36.1320    28.1580   -24.9040 h1         1 ZYN       0.048200
     37 HACB       -36.8020    26.8580   -23.8740 h1         1 ZYN       0.048200
     38 HAD        -34.6040    28.8860   -21.7550 h1         1 ZYN       0.048200
     39 HADA       -34.3840    28.5450   -23.4850 h1         1 ZYN       0.048200
     40 HADB       -34.9020    30.1690   -22.9670 h1         1 ZYN       0.048200
     41 HOAH       -35.6590    32.8600   -17.6500 ho         1 ZYN       0.525000
     42 HAK        -39.6670    36.9480   -23.7780 ha         1 ZYN       0.138000
     43 HAL        -37.4190    35.8870   -23.6320 ha         1 ZYN       0.121000
     44 HAM        -37.6130    36.1080   -19.3130 ha         1 ZYN       0.142000
     45 HAN        -38.1090    32.1140   -21.9430 hc         1 ZYN       0.069200
     46 HANA       -37.0940    31.1160   -22.9520 hc         1 ZYN       0.069200
     47 HAO        -35.1310    32.5550   -22.5120 h1         1 ZYN       0.052700
     48 HAOA       -36.4890    33.4850   -23.1750 h1         1 ZYN       0.052700
     49 HAP        -35.4340    35.4390   -22.2930 h1         1 ZYN       0.075200
     50 HAPA       -35.4100    35.7480   -20.5620 h1         1 ZYN       0.075200
     51 HBA        -36.8160    27.0630   -20.2070 h1         1 ZYN       0.050700
     52 FAI        -41.1240    37.6980   -21.7340 f          1 ZYN      -0.162000
     53 ClAJ       -40.1740    37.3310   -18.8950 cl         1 ZYN      -0.168000
@<TRIPOS>BOND
     1     1    25 1   
     2     1    29 1   
     3     1    30 1   
     4     1    31 1   
     5     2    25 1   
     6     2    32 1   
     7     2    33 1   
     8     2    34 1   
     9     3    26 1   
    10     3    35 1   
    11     3    36 1   
    12     3    37 1   
    13     4    26 1   
    14     4    38 1   
    15     4    39 1   
    16     4    40 1   
    17     5    15 2   
    18     6    16 2   
    19     7    24 2   
    20     8    20 1   
    21     8    41 1   
    22     9    10 ar  
    23     9    17 ar  
    24     9    42 1   
    25    10    18 ar  
    26    10    43 1   
    27    11    18 ar  
    28    11    19 ar  
    29    11    44 1   
    30    12    13 1   
    31    12    21 1   
    32    12    45 1   
    33    12    46 1   
    34    13    27 1   
    35    13    47 1   
    36    13    48 1   
    37    14    18 1   
    38    14    27 1   
    39    14    49 1   
    40    14    50 1   
    41    15    23 1   
    42    15    26 1   
    43    16    22 1   
    44    16    27 1   
    45    17    19 ar  
    46    17    52 1   
    47    19    53 1   
    48    20    22 2   
    49    20    24 1   
    50    21    22 1   
    51    21    23 2   
    52    23    28 1   
    53    24    28 1   
    54    25    28 1   
    55    25    51 1   
@<TRIPOS>SUBSTRUCTURE
     1 ZYN         1 TEMP              0 ****  ****    0 ROOT
