@<TRIPOS>MOLECULE
ZYO
   60    64     1     0     0
SMALL
bcc


@<TRIPOS>ATOM
      1 NE         -40.1760    31.4660   -25.3200 n3         1 ZYO      -0.664500
      2 NF         -38.7210    28.4880   -19.1170 n          1 ZYO      -0.488800
      3 NG         -38.7690    32.0380   -23.3960 nh         1 ZYO      -0.688500
      4 NH         -37.7220    34.7360   -21.3370 n          1 ZYO      -0.187800
      5 NI         -38.4260    30.8540   -20.5540 na         1 ZYO       0.016900
      6 CAA        -37.7730    26.2090   -18.9910 c3         1 ZYO      -0.109100
      7 CAB        -37.3600    29.0640   -21.8530 c3         1 ZYO      -0.108100
      8 CAC        -40.2760    30.0060   -25.3470 c3         1 ZYO       0.164100
      9 OAF        -41.2030    31.3480   -22.9580 o          1 ZYO      -0.598800
     10 OAG        -40.7760    33.5560   -24.0110 o          1 ZYO      -0.598800
     11 CAK        -41.1180    37.4430   -21.7680 ca         1 ZYO      -0.165000
     12 CAL        -39.9530    36.7550   -22.0660 ca         1 ZYO      -0.077000
     13 CAM        -38.8360    37.7980   -20.2140 ca         1 ZYO      -0.066000
     14 CAN        -38.8290    27.1800   -18.4890 c3         1 ZYO       0.103000
     15 CAO        -38.8970    32.0110   -25.7900 c5         1 ZYO       0.127800
     16 CAP        -37.9200    32.0260   -24.5980 c5         1 ZYO       0.170800
     17 CAQ        -37.5520    36.1580   -21.6190 c3         1 ZYO       0.166300
     18 CAR        -39.4050    28.6810   -20.3830 c6         1 ZYO       0.096000
     19 NAS        -38.1070    34.0020   -22.3730 nc         1 ZYO      -0.437300
     20 CAT        -38.1760    29.5310   -18.4560 c          1 ZYO       0.757100
     21 CAU        -41.1270    38.3090   -20.6940 ca         1 ZYO       0.153900
     22 CAV        -38.8050    36.9280   -21.2970 ca         1 ZYO      -0.136300
     23 CAW        -39.9980    38.4920   -19.9170 ca         1 ZYO      -0.031600
     24 CAX        -37.7820    32.0520   -18.7670 cc         1 ZYO       0.216100
     25 CAY        -38.3700    32.7460   -22.2480 cd         1 ZYO       0.550800
     26 CAZ        -38.1330    30.7900   -19.2030 cd         1 ZYO      -0.234900
     27 CBA        -37.5960    34.2890   -20.0320 c          1 ZYO       0.738100
     28 CBB        -37.8580    32.8940   -19.8950 cc         1 ZYO      -0.326600
     29 CBC        -38.2490    32.1140   -20.9800 cd         1 ZYO      -0.076200
     30 CBD        -38.6630    29.6300   -21.3100 c6         1 ZYO       0.048000
     31 SBJ        -40.3970    32.1700   -23.8370 s6         1 ZYO       1.364800
     32 HAA        -37.9200    25.2290   -18.5380 hc         1 ZYO       0.040367
     33 HAAA       -37.8240    26.0820   -20.0740 hc         1 ZYO       0.040367
     34 HAAB       -36.7720    26.5540   -18.7350 hc         1 ZYO       0.040367
     35 HAB        -37.5650    28.1830   -22.4610 hc         1 ZYO       0.052367
     36 HABA       -36.8530    29.7940   -22.4830 hc         1 ZYO       0.052367
     37 HABB       -36.6780    28.7780   -21.0520 hc         1 ZYO       0.052367
     38 HAC        -39.5100    29.5000   -24.7520 h1         1 ZYO       0.058033
     39 HACA       -41.2580    29.6900   -25.0080 h1         1 ZYO       0.058033
     40 HACB       -40.1650    29.6950   -26.3830 h1         1 ZYO       0.058033
     41 HOAH       -37.2850    33.3490   -17.4950 ho         1 ZYO       0.454000
     42 HAK        -42.0120    37.3140   -22.3630 ha         1 ZYO       0.160000
     43 HAL        -39.9490    36.0720   -22.9060 ha         1 ZYO       0.162000
     44 HAM        -37.9580    37.9380   -19.5970 ha         1 ZYO       0.158000
     45 HAN        -38.7500    27.3010   -17.4110 h1         1 ZYO       0.058200
     46 HANA       -39.8300    26.7940   -18.6930 h1         1 ZYO       0.058200
     47 HAO        -38.5270    31.3970   -26.6070 h1         1 ZYO       0.092200
     48 HAOA       -39.0540    33.0190   -26.1730 h1         1 ZYO       0.092200
     49 HAP        -37.2810    32.9060   -24.6410 h1         1 ZYO       0.073700
     50 HAPA       -37.2940    31.1350   -24.5750 h1         1 ZYO       0.073700
     51 HAQ        -36.7050    36.5340   -21.0490 h1         1 ZYO       0.078200
     52 HAQA       -37.3040    36.2400   -22.6750 h1         1 ZYO       0.078200
     53 HAR        -39.4930    27.7170   -20.8820 h1         1 ZYO       0.062700
     54 HARA       -40.4230    29.0500   -20.2130 h1         1 ZYO       0.062700
     55 HBD        -39.3340    29.8650   -22.1320 h1         1 ZYO       0.088700
     56 OAD        -37.7240    29.4650   -17.3190 o          1 ZYO      -0.607500
     57 OAE        -37.2780    35.0440   -19.1200 o          1 ZYO      -0.629500
     58 OAH        -37.4460    32.3960   -17.5230 oh         1 ZYO      -0.440100
     59 FAI        -42.2420    38.9850   -20.3950 f          1 ZYO      -0.126900
     60 CLAJ       -40.0540    39.5780   -18.5760 cl         1 ZYO      -0.080400
@<TRIPOS>BOND
     1     1     8 1   
     2     1    15 1   
     3     1    31 1   
     4     2    14 1   
     5     2    18 1   
     6     2    20 1   
     7     3    16 1   
     8     3    25 1   
     9     3    31 1   
    10     4    17 1   
    11     4    19 1   
    12     4    27 1   
    13     5    26 1   
    14     5    29 1   
    15     5    30 1   
    16     6    14 1   
    17     6    32 1   
    18     6    33 1   
    19     6    34 1   
    20     7    30 1   
    21     7    35 1   
    22     7    36 1   
    23     7    37 1   
    24     8    38 1   
    25     8    39 1   
    26     8    40 1   
    27     9    31 2   
    28    10    31 2   
    29    11    12 ar  
    30    11    21 ar  
    31    11    42 1   
    32    12    22 ar  
    33    12    43 1   
    34    13    22 ar  
    35    13    23 ar  
    36    13    44 1   
    37    14    45 1   
    38    14    46 1   
    39    15    16 1   
    40    15    47 1   
    41    15    48 1   
    42    16    49 1   
    43    16    50 1   
    44    17    22 1   
    45    17    51 1   
    46    17    52 1   
    47    18    30 1   
    48    18    53 1   
    49    18    54 1   
    50    19    25 2   
    51    20    26 1   
    52    20    56 2   
    53    21    23 ar  
    54    21    59 1   
    55    23    60 1   
    56    24    26 2   
    57    24    28 1   
    58    24    58 1   
    59    25    29 1   
    60    27    28 1   
    61    27    57 2   
    62    28    29 2   
    63    30    55 1   
    64    41    58 1   
@<TRIPOS>SUBSTRUCTURE
     1 ZYO         1 TEMP              0 ****  ****    0 ROOT
