@<TRIPOS>MOLECULE
ZYO
   60    64     1     0     0
SMALL
No Charge or Current Charge


@<TRIPOS>ATOM
      1 NE         -40.2520    32.1660   -25.3260 n3         1 ZYO      -0.664500
      2 NF         -38.6040    28.3170   -18.7910 n          1 ZYO      -0.421800
      3 NG         -38.8500    31.7330   -23.2970 nh         1 ZYO      -0.688500
      4 NH         -37.8020    34.5950   -21.3730 n          1 ZYO      -0.120800
      5 NI         -38.4520    30.6650   -20.3740 na         1 ZYO       0.089000
      6 CAA        -37.3290    26.1830   -18.4770 c3         1 ZYO      -0.109100
      7 CAB        -37.2600    28.8920   -21.6860 c3         1 ZYO      -0.108100
      8 CAC        -40.8660    31.2670   -26.3240 c3         1 ZYO       0.164100
      9 OAF        -40.9430    30.3350   -23.6380 o          1 ZYO      -0.528000
     10 OAG        -41.1970    32.8130   -23.0080 o          1 ZYO      -0.528000
     11 CAK        -41.0530    37.5840   -22.1530 ca         1 ZYO      -0.147000
     12 CAL        -39.9090    36.7950   -22.3700 ca         1 ZYO      -0.059000
     13 CAM        -38.8740    37.7530   -20.3820 ca         1 ZYO      -0.048000
     14 CAN        -38.5680    27.0110   -18.0970 c3         1 ZYO       0.103000
     15 CAO        -38.8380    32.5470   -25.5750 c5         1 ZYO       0.127800
     16 CAP        -38.0230    31.6930   -24.5360 c5         1 ZYO       0.170800
     17 CAQ        -37.5790    36.0130   -21.7180 c3         1 ZYO       0.166300
     18 CAR        -39.2440    28.3620   -20.1420 c6         1 ZYO       0.096000
     19 NAS        -38.1800    33.7790   -22.4510 nc         1 ZYO      -0.437300
     20 CAT        -38.1720    29.4940   -18.1280 c          1 ZYO       0.614600
     21 CAU        -41.1070    38.4550   -21.0540 ca         1 ZYO       0.189000
     22 CAV        -38.8130    36.8790   -21.4870 ca         1 ZYO      -0.136300
     23 CAW        -40.0180    38.5410   -20.1650 ca         1 ZYO       0.060000
     24 CAX        -37.8640    31.9760   -18.6830 cc         1 ZYO       0.216100
     25 CAY        -38.4480    32.4920   -22.2210 cd         1 ZYO       0.550800
     26 CAZ        -38.1810    30.6810   -19.0040 cd         1 ZYO      -0.285600
     27 CBA        -37.6570    34.1860   -20.0150 c          1 ZYO       0.595600
     28 CBB        -37.9370    32.7560   -19.8440 cc         1 ZYO      -0.326600
     29 CBC        -38.3090    31.9590   -20.8860 cd         1 ZYO      -0.126900
     30 CBD        -38.6080    29.3980   -21.1070 c6         1 ZYO       0.077300
     31 SBJ        -40.4980    31.7290   -23.7010 s6         1 ZYO       1.223200
     32 HAA        -37.3380    25.2210   -17.9510 hc         1 ZYO       0.040367
     33 HAAA       -37.3090    25.9860   -19.5560 hc         1 ZYO       0.040367
     34 HAAB       -36.4120    26.7170   -18.2040 hc         1 ZYO       0.040367
     35 HAB        -37.3950    27.9560   -22.2410 hc         1 ZYO       0.052367
     36 HABA       -36.8270    29.6270   -22.3750 hc         1 ZYO       0.052367
     37 HABB       -36.5280    28.7070   -20.8900 hc         1 ZYO       0.052367
     38 HAC        -40.3910    30.2770   -26.3080 h1         1 ZYO       0.058033
     39 HACA       -41.9390    31.1400   -26.1290 h1         1 ZYO       0.058033
     40 HACB       -40.7570    31.6810   -27.3350 h1         1 ZYO       0.058033
     41 HOAH       -37.3500    33.4440   -17.6640 ho         1 ZYO       0.493000
     42 HAK        -41.8980    37.5190   -22.8330 ha         1 ZYO       0.142000
     43 HAL        -39.8760    36.1150   -23.2200 ha         1 ZYO       0.144000
     44 HAM        -38.0390    37.8200   -19.6880 ha         1 ZYO       0.140000
     45 HAN        -38.5880    27.1570   -17.0100 h1         1 ZYO       0.058200
     46 HANA       -39.4710    26.4440   -18.3610 h1         1 ZYO       0.058200
     47 HAO        -38.5110    32.3710   -26.6090 h1         1 ZYO       0.092200
     48 HAOA       -38.6900    33.6150   -25.3610 h1         1 ZYO       0.092200
     49 HAP        -37.0150    32.1030   -24.3850 h1         1 ZYO       0.073700
     50 HAPA       -37.9100    30.6590   -24.8880 h1         1 ZYO       0.073700
     51 HAQ        -36.7350    36.3980   -21.1320 h1         1 ZYO       0.078200
     52 HAQA       -37.2860    36.0820   -22.7740 h1         1 ZYO       0.078200
     53 HAR        -39.2180    27.3660   -20.6060 h1         1 ZYO       0.062700
     54 HARA       -40.3040    28.6210   -20.0040 h1         1 ZYO       0.062700
     55 HBD        -39.2980    29.5460   -21.9420 h1         1 ZYO       0.088700
     56 OAD        -37.8170    29.5050   -16.9580 o          1 ZYO      -0.532000
     57 OAE        -37.3290    34.9200   -19.0910 o          1 ZYO      -0.554000
     58 OAH        -37.5090    32.4880   -17.4970 oh         1 ZYO      -0.479100
     59 FAI        -42.2140    39.2070   -20.8560 f          1 ZYO      -0.162000
     60 ClAJ       -40.0710    39.6270   -18.7750 cl         1 ZYO      -0.172000
@<TRIPOS>BOND
     1     1     8 1   
     2     1    15 1   
     3     1    31 1   
     4     2    14 1   
     5     2    18 1   
     6     2    20 1   
     7     3    16 1   
     8     3    25 1   
     9     3    31 1   
    10     4    17 1   
    11     4    19 1   
    12     4    27 1   
    13     5    26 1   
    14     5    29 1   
    15     5    30 1   
    16     6    14 1   
    17     6    32 1   
    18     6    33 1   
    19     6    34 1   
    20     7    30 1   
    21     7    35 1   
    22     7    36 1   
    23     7    37 1   
    24     8    38 1   
    25     8    39 1   
    26     8    40 1   
    27     9    31 2   
    28    10    31 2   
    29    11    12 ar  
    30    11    21 ar  
    31    11    42 1   
    32    12    22 ar  
    33    12    43 1   
    34    13    22 ar  
    35    13    23 ar  
    36    13    44 1   
    37    14    45 1   
    38    14    46 1   
    39    15    16 1   
    40    15    47 1   
    41    15    48 1   
    42    16    49 1   
    43    16    50 1   
    44    17    22 1   
    45    17    51 1   
    46    17    52 1   
    47    18    30 1   
    48    18    53 1   
    49    18    54 1   
    50    19    25 2   
    51    20    26 1   
    52    20    56 2   
    53    21    23 ar  
    54    21    59 1   
    55    23    60 1   
    56    24    26 2   
    57    24    28 1   
    58    24    58 1   
    59    25    29 1   
    60    27    28 1   
    61    27    57 2   
    62    28    29 2   
    63    30    55 1   
    64    41    58 1   
@<TRIPOS>SUBSTRUCTURE
     1 ZYO         1 TEMP              0 ****  ****    0 ROOT
