@<TRIPOS>MOLECULE
ZYP
   49    52     1     0     0
SMALL
abcg2


@<TRIPOS>ATOM
      1 OAA          0.8320     3.7020     0.4410 o          1 ZYP      -0.585100
      2 OAB         -2.6260    -1.7830     1.6700 o          1 ZYP      -0.526500
      3 OAC         -2.4540    -3.7380     0.1030 o          1 ZYP      -0.526500
      4 CAF         -5.4920     0.6790    -0.2950 ca         1 ZYP      -0.152000
      5 CAG         -5.3840     2.0510     0.0050 ca         1 ZYP       0.376900
      6 CAH          5.2550    -0.7210    -1.5880 ca         1 ZYP      -0.157000
      7 CAI          4.4490    -1.4020     0.5880 ca         1 ZYP      -0.157000
      8 CAJ          4.5710     0.4800    -1.4530 ca         1 ZYP      -0.070500
      9 CAK          3.7800    -0.1940     0.7060 ca         1 ZYP      -0.070500
     10 CAL         -4.3530    -0.0680    -0.4300 ca         1 ZYP      -0.023000
     11 CAM          0.5460    -2.2200    -1.2750 c6         1 ZYP      -0.114400
     12 CAN          0.5890    -3.2260    -0.1310 c6         1 ZYP      -0.055400
     13 CAO         -0.8700    -1.9120    -1.7460 c6         1 ZYP       0.202800
     14 CAP          3.0420     2.0340    -0.1870 c3         1 ZYP       0.160300
     15 CAQ         -0.2120    -2.7540     1.0790 c6         1 ZYP      -0.334400
     16 NAR         -4.2370     2.6650     0.1470 nb         1 ZYP      -0.690000
     17 NAS         -0.7370     0.6070    -0.2810 nb         1 ZYP      -0.686000
     18 CAU          0.6470     2.5520     0.0680 c          1 ZYP       0.523600
     19 CAV          5.1760    -1.6420    -0.5630 ca         1 ZYP       0.176000
     20 CAW          3.8310     0.7590    -0.3100 ca         1 ZYP      -0.129300
     21 CAX         -1.8800     2.6510     0.1350 ca         1 ZYP       0.209100
     22 CAY         -0.7130     1.9370    -0.0340 ca         1 ZYP       0.222500
     23 CAZ         -1.8370    -0.0610    -0.3890 ca         1 ZYP       0.545900
     24 CBA         -3.1070     0.5680    -0.2710 ca         1 ZYP      -0.055000
     25 CBB         -3.1140     1.9420     0.0050 ca         1 ZYP       0.199000
     26 NBC         -1.7780    -1.4430    -0.6810 nh         1 ZYP      -0.709200
     27 SBD         -1.9160    -2.4890     0.6170 s6         1 ZYP       1.188100
     28 HOAD        -2.8680     4.1960     0.4540 ho         1 ZYP       0.502000
     29 HAF         -6.4700     0.2350    -0.4150 ha         1 ZYP       0.135000
     30 HAG         -6.2790     2.6490     0.1240 h4         1 ZYP       0.029100
     31 HAH          5.8330    -0.9360    -2.4770 ha         1 ZYP       0.134500
     32 HAI          4.4080    -2.1410     1.3780 ha         1 ZYP       0.134500
     33 HAJ          4.6180     1.2050    -2.2560 ha         1 ZYP       0.123000
     34 HAK          3.2100     0.0080     1.6050 ha         1 ZYP       0.123000
     35 HAL         -4.4050    -1.1210    -0.6680 ha         1 ZYP       0.139000
     36 HAM          1.0420    -1.2980    -0.9660 hc         1 ZYP       0.063700
     37 HAMA         1.1080    -2.6100    -2.1250 hc         1 ZYP       0.063700
     38 HAN          0.2190    -4.1990    -0.4610 hc         1 ZYP       0.062700
     39 HANA         1.6190    -3.3790     0.1930 hc         1 ZYP       0.062700
     40 HAO         -0.8630    -1.1430    -2.5160 h1         1 ZYP       0.074700
     41 HAOA        -1.3200    -2.8000    -2.1930 h1         1 ZYP       0.074700
     42 HAP          3.3370     2.7420    -0.9660 h1         1 ZYP       0.059200
     43 HAPA         3.2420     2.5140     0.7740 h1         1 ZYP       0.059200
     44 HAQ         -0.2160    -3.4850     1.8900 h1         1 ZYP       0.106700
     45 HAQA         0.1560    -1.8020     1.4660 h1         1 ZYP       0.106700
     46 HNAT         1.3650     0.7970    -0.5960 hn         1 ZYP       0.335500
     47 OAD         -1.9270     3.9480     0.3940 oh         1 ZYP      -0.468100
     48 NAT          1.6330     1.7170    -0.2820 ns         1 ZYP      -0.503900
     49 FAE          5.8300    -2.8080    -0.6850 f          1 ZYP      -0.177000
@<TRIPOS>BOND
     1     1    18 2   
     2     2    27 2   
     3     3    27 2   
     4     4     5 ar  
     5     4    10 ar  
     6     4    29 1   
     7     5    16 ar  
     8     5    30 1   
     9     6     8 ar  
    10     6    19 ar  
    11     6    31 1   
    12     7     9 ar  
    13     7    19 ar  
    14     7    32 1   
    15     8    20 ar  
    16     8    33 1   
    17     9    20 ar  
    18     9    34 1   
    19    10    24 ar  
    20    10    35 1   
    21    11    12 1   
    22    11    13 1   
    23    11    36 1   
    24    11    37 1   
    25    12    15 1   
    26    12    38 1   
    27    12    39 1   
    28    13    26 1   
    29    13    40 1   
    30    13    41 1   
    31    14    20 1   
    32    14    42 1   
    33    14    43 1   
    34    14    48 1   
    35    15    27 1   
    36    15    44 1   
    37    15    45 1   
    38    16    25 ar  
    39    17    22 ar  
    40    17    23 ar  
    41    18    22 1   
    42    18    48 1   
    43    19    49 1   
    44    21    22 ar  
    45    21    25 ar  
    46    21    47 1   
    47    23    24 ar  
    48    23    26 1   
    49    24    25 ar  
    50    26    27 1   
    51    28    47 1   
    52    46    48 1   
@<TRIPOS>SUBSTRUCTURE
     1 ZYP         1 TEMP              0 ****  ****    0 ROOT
