@<TRIPOS>MOLECULE
ZYP
   49    52     1     0     0
SMALL
No Charge or Current Charge


@<TRIPOS>ATOM
      1 OAA          0.8610     3.7230     0.2830 o          1 ZYP      -0.585100
      2 OAB         -2.4120    -1.7410     1.8780 o          1 ZYP      -0.526500
      3 OAC         -2.2480    -3.7840     0.3680 o          1 ZYP      -0.526500
      4 CAF         -5.6250     0.6830    -0.3220 ca         1 ZYP      -0.152000
      5 CAG         -5.5430     2.0620    -0.0840 ca         1 ZYP       0.376900
      6 CAH          5.3080    -0.7650    -1.5670 ca         1 ZYP      -0.157000
      7 CAI          4.5550    -1.5780     0.6000 ca         1 ZYP      -0.157000
      8 CAJ          4.6040     0.4360    -1.3640 ca         1 ZYP      -0.070500
      9 CAK          3.8520    -0.3780     0.8070 ca         1 ZYP      -0.070500
     10 CAL         -4.4420    -0.0640    -0.4340 ca         1 ZYP      -0.023000
     11 CAM          0.4260    -2.1230    -1.4860 c6         1 ZYP      -0.114400
     12 CAN          0.7500    -2.9970    -0.2490 c6         1 ZYP      -0.055400
     13 CAO         -1.1010    -1.9740    -1.7700 c6         1 ZYP       0.202800
     14 CAP          3.0820     1.9150     0.0390 c3         1 ZYP       0.160300
     15 CAQ          0.0110    -2.4880     1.0130 c6         1 ZYP      -0.334400
     16 NAR         -4.3610     2.7140     0.0430 nb         1 ZYP      -0.690000
     17 NAS         -0.7950     0.5570    -0.2900 nb         1 ZYP      -0.686000
     18 CAU          0.6310     2.5370     0.0720 c          1 ZYP       0.523600
     19 CAV          5.2800    -1.7670    -0.5860 ca         1 ZYP       0.176000
     20 CAW          3.8740     0.6350    -0.1740 ca         1 ZYP      -0.129300
     21 CAX         -1.9600     2.6590     0.0610 ca         1 ZYP       0.209100
     22 CAY         -0.7620     1.9040    -0.0590 ca         1 ZYP       0.222500
     23 CAZ         -1.9720    -0.0730    -0.3970 ca         1 ZYP       0.545900
     24 CBA         -3.2070     0.6040    -0.2990 ca         1 ZYP      -0.055000
     25 CBB         -3.2050     2.0000    -0.0640 ca         1 ZYP       0.199000
     26 NBC         -1.8850    -1.4450    -0.6210 nh         1 ZYP      -0.709200
     27 SBD         -1.7780    -2.4520     0.7630 s6         1 ZYP       1.188100
     28 HOAD        -2.9340     4.2520     0.3230 ho         1 ZYP       0.502000
     29 HAF         -6.5960     0.2060    -0.4190 ha         1 ZYP       0.135000
     30 HAG         -6.4450     2.6660     0.0070 h4         1 ZYP       0.029100
     31 HAH          5.8700    -0.9210    -2.4840 ha         1 ZYP       0.134500
     32 HAI          4.5360    -2.3600     1.3540 ha         1 ZYP       0.134500
     33 HAJ          4.6210     1.2070    -2.1320 ha         1 ZYP       0.123000
     34 HAK          3.2840    -0.2370     1.7250 ha         1 ZYP       0.123000
     35 HAL         -4.4910    -1.1350    -0.6230 ha         1 ZYP       0.139000
     36 HAM          0.8870    -1.1350    -1.3670 hc         1 ZYP       0.063700
     37 HAMA         0.9070    -2.5610    -2.3700 hc         1 ZYP       0.063700
     38 HAN          0.4730    -4.0420    -0.4510 hc         1 ZYP       0.062700
     39 HANA         1.8350    -2.9960    -0.0710 hc         1 ZYP       0.062700
     40 HAO         -1.2350    -1.3150    -2.6400 h1         1 ZYP       0.074700
     41 HAOA        -1.5040    -2.9520    -2.0740 h1         1 ZYP       0.074700
     42 HAP          3.3570     2.6680    -0.7120 h1         1 ZYP       0.059200
     43 HAPA         3.2950     2.3260     1.0350 h1         1 ZYP       0.059200
     44 HAQ          0.1850    -3.1410     1.8770 h1         1 ZYP       0.106700
     45 HAQA         0.3010    -1.4610     1.2630 h1         1 ZYP       0.106700
     46 HNAT         1.3640     0.6740    -0.2400 hn         1 ZYP       0.335500
     47 OAD         -1.9790     4.0120     0.2920 oh         1 ZYP      -0.468100
     48 NAT          1.6590     1.6300    -0.0670 ns         1 ZYP      -0.503900
     49 FAE          5.9530    -2.9210    -0.7840 f          1 ZYP      -0.177000
@<TRIPOS>BOND
     1     1    18 2   
     2     2    27 2   
     3     3    27 2   
     4     4     5 ar  
     5     4    10 ar  
     6     4    29 1   
     7     5    16 ar  
     8     5    30 1   
     9     6     8 ar  
    10     6    19 ar  
    11     6    31 1   
    12     7     9 ar  
    13     7    19 ar  
    14     7    32 1   
    15     8    20 ar  
    16     8    33 1   
    17     9    20 ar  
    18     9    34 1   
    19    10    24 ar  
    20    10    35 1   
    21    11    12 1   
    22    11    13 1   
    23    11    36 1   
    24    11    37 1   
    25    12    15 1   
    26    12    38 1   
    27    12    39 1   
    28    13    26 1   
    29    13    40 1   
    30    13    41 1   
    31    14    20 1   
    32    14    42 1   
    33    14    43 1   
    34    14    48 1   
    35    15    27 1   
    36    15    44 1   
    37    15    45 1   
    38    16    25 ar  
    39    17    22 ar  
    40    17    23 ar  
    41    18    22 1   
    42    18    48 1   
    43    19    49 1   
    44    21    22 ar  
    45    21    25 ar  
    46    21    47 1   
    47    23    24 ar  
    48    23    26 1   
    49    24    25 ar  
    50    26    27 1   
    51    28    47 1   
    52    46    48 1   
@<TRIPOS>SUBSTRUCTURE
     1 ZYP         1 TEMP              0 ****  ****    0 ROOT
