@<TRIPOS>MOLECULE
ZYQ
   26    27     1     0     0
SMALL
bcc


@<TRIPOS>ATOM
      1 CAA          5.0190    -0.4400     0.0540 c3         1 ZYQ      -0.173100
      2 CAK          3.6260     0.1110     0.1040 c          1 ZYQ       0.671100
      3 OAB          3.3480     1.2760     0.3130 o          1 ZYQ      -0.564100
      4 NAI          2.6390    -0.8110    -0.1120 ns         1 ZYQ      -0.541400
      5 CAN          1.3020    -0.5240    -0.1350 cc         1 ZYQ       0.524300
      6 NAG          0.4210    -1.4500    -0.3740 nd         1 ZYQ      -0.719000
      7 CAM         -0.8410    -0.9420    -0.3330 cd         1 ZYQ       0.428600
      8 CAF         -2.0210    -1.7880    -0.6940 c3         1 ZYQ      -0.106700
      9 CAD         -3.1140    -1.8580     0.3800 c3         1 ZYQ      -0.081400
     10 CAE         -3.2830    -0.5570     1.1560 c3         1 ZYQ       0.110000
     11 NAH         -3.2410     0.6460     0.3390 ns         1 ZYQ      -0.563900
     12 CAL         -2.0960     1.2560    -0.0310 c          1 ZYQ       0.752100
     13 OAC         -2.0300     2.4360    -0.3580 o          1 ZYQ      -0.637500
     14 CAO         -0.9110     0.3910    -0.0440 cc         1 ZYQ      -0.299000
     15 SAJ          0.6720     1.0560     0.1490 ss         1 ZYQ       0.017700
     16 HAA1         5.7400     0.3430     0.2690 hc         1 ZYQ       0.071033
     17 HAA2         5.1420    -1.2470     0.7770 hc         1 ZYQ       0.071033
     18 HAA3         5.2260    -0.8510    -0.9350 hc         1 ZYQ       0.071033
     19 HAI          2.8820    -1.7760    -0.2900 hn         1 ZYQ       0.340500
     20 HAF1        -2.4570    -1.3770    -1.6080 hc         1 ZYQ       0.063200
     21 HAF2        -1.6770    -2.7920    -0.9420 hc         1 ZYQ       0.063200
     22 HAD1        -4.0520    -2.1370    -0.1030 hc         1 ZYQ       0.048700
     23 HAD2        -2.8880    -2.6440     1.1030 hc         1 ZYQ       0.048700
     24 HAE1        -4.2420    -0.5610     1.6730 h1         1 ZYQ       0.045700
     25 HAE2        -2.5150    -0.4910     1.9290 h1         1 ZYQ       0.045700
     26 HAH         -4.0690     1.2230     0.3220 hn         1 ZYQ       0.313500
@<TRIPOS>BOND
     1     1     2 1   
     2     1    16 1   
     3     1    17 1   
     4     1    18 1   
     5     2     3 2   
     6     2     4 1   
     7     4     5 1   
     8     4    19 1   
     9     5     6 2   
    10     5    15 1   
    11     6     7 1   
    12     7     8 1   
    13     7    14 2   
    14     8     9 1   
    15     8    20 1   
    16     8    21 1   
    17     9    10 1   
    18     9    22 1   
    19     9    23 1   
    20    10    11 1   
    21    10    24 1   
    22    10    25 1   
    23    11    12 1   
    24    11    26 1   
    25    12    13 2   
    26    12    14 1   
    27    14    15 1   
@<TRIPOS>SUBSTRUCTURE
     1 ZYQ         1 TEMP              0 ****  ****    0 ROOT
