@<TRIPOS>MOLECULE
ZYQ
   26    27     1     0     0
SMALL
No Charge or Current Charge


@<TRIPOS>ATOM
      1 CAA          5.0680    -0.5710     0.0560 c3         1 ZYQ      -0.173100
      2 CAK          3.7250     0.1450     0.0740 c          1 ZYQ       0.604100
      3 OAB          3.6380     1.3520     0.2340 o          1 ZYQ      -0.564100
      4 NAI          2.6410    -0.6740    -0.1000 ns         1 ZYQ      -0.474400
      5 CAN          1.3130    -0.3420    -0.1340 cc         1 ZYQ       0.524300
      6 NAG          0.4560    -1.3280    -0.3280 nd         1 ZYQ      -0.719000
      7 CAM         -0.8420    -0.8390    -0.3170 cd         1 ZYQ       0.363300
      8 CAF         -1.9710    -1.7620    -0.6920 c3         1 ZYQ      -0.106700
      9 CAD         -3.0580    -1.9060     0.3900 c3         1 ZYQ      -0.081400
     10 CAE         -3.3680    -0.6050     1.1490 c3         1 ZYQ       0.110000
     11 NAH         -3.3380     0.6050     0.3200 ns         1 ZYQ      -0.496900
     12 CAL         -2.1910     1.2850    -0.0170 c          1 ZYQ       0.609600
     13 OAC         -2.2320     2.4880    -0.2060 o          1 ZYQ      -0.562000
     14 CAO         -0.9420     0.5120    -0.0780 cc         1 ZYQ      -0.378600
     15 SAJ          0.6220     1.2640     0.0040 ss         1 ZYQ       0.162600
     16 HAA1         5.9120     0.1130     0.1990 hc         1 ZYQ       0.071033
     17 HAA2         5.0600    -1.3660     0.8100 hc         1 ZYQ       0.071033
     18 HAA3         5.1590    -1.1360    -0.8790 hc         1 ZYQ       0.071033
     19 HAI          2.8530    -1.6540    -0.2180 hn         1 ZYQ       0.340500
     20 HAF1        -2.4390    -1.3800    -1.6060 hc         1 ZYQ       0.063200
     21 HAF2        -1.5890    -2.7590    -0.9470 hc         1 ZYQ       0.063200
     22 HAD1        -3.9760    -2.2750    -0.0840 hc         1 ZYQ       0.048700
     23 HAD2        -2.7530    -2.6680     1.1170 hc         1 ZYQ       0.048700
     24 HAE1        -4.3540    -0.6870     1.6250 h1         1 ZYQ       0.045700
     25 HAE2        -2.6290    -0.4800     1.9530 h1         1 ZYQ       0.045700
     26 HAH         -4.1840     1.1600     0.2860 hn         1 ZYQ       0.313500
@<TRIPOS>BOND
     1     1     2 1   
     2     1    16 1   
     3     1    17 1   
     4     1    18 1   
     5     2     3 2   
     6     2     4 1   
     7     4     5 1   
     8     4    19 1   
     9     5     6 2   
    10     5    15 1   
    11     6     7 1   
    12     7     8 1   
    13     7    14 2   
    14     8     9 1   
    15     8    20 1   
    16     8    21 1   
    17     9    10 1   
    18     9    22 1   
    19     9    23 1   
    20    10    11 1   
    21    10    24 1   
    22    10    25 1   
    23    11    12 1   
    24    11    26 1   
    25    12    13 2   
    26    12    14 1   
    27    14    15 1   
@<TRIPOS>SUBSTRUCTURE
     1 ZYQ         1 TEMP              0 ****  ****    0 ROOT
