@<TRIPOS>MOLECULE
ZYR
   24    26     1     0     0
SMALL
abcg2


@<TRIPOS>ATOM
      1 OAA         -1.4960    -2.5930     0.0520 o          1 ZYR      -0.538000
      2 CAL         -1.6770    -1.3870     0.0310 c          1 ZYR       0.593600
      3 CAN         -0.6730    -0.3520     0.0150 cc         1 ZYR      -0.231600
      4 CAK          0.7530    -0.4820     0.0100 cc         1 ZYR      -0.029300
      5 CAF          1.5340    -1.7630     0.0100 c6         1 ZYR      -0.015100
      6 CAD          2.9980    -1.5190    -0.3460 c6         1 ZYR      -0.074400
      7 CAC          3.5670    -0.3200     0.4020 c6         1 ZYR      -0.071400
      8 CAE          2.8420     0.9650     0.0060 c6         1 ZYR      -0.001100
      9 CAJ          1.3660     0.7320     0.0050 cd         1 ZYR      -0.221300
     10 SAI          0.2360     2.0500    -0.0060 ss         1 ZYR       0.257000
     11 CAM         -1.0990     0.9640     0.0030 cd         1 ZYR       0.062400
     12 NAG         -2.3800     1.3990    -0.0020 nd         1 ZYR      -0.594100
     13 CAB         -3.2610     0.4580     0.0070 cc         1 ZYR       0.497800
     14 NAH         -2.9630    -0.8590     0.0220 ns         1 ZYR      -0.420400
     15 HAH         -3.7310    -1.5190     0.0280 hn         1 ZYR       0.330500
     16 HAF1         1.4620    -2.2300     0.9970 hc         1 ZYR       0.064200
     17 HAF2         1.0890    -2.4740    -0.6880 hc         1 ZYR       0.064200
     18 HAD1         3.5800    -2.4150    -0.1220 hc         1 ZYR       0.043700
     19 HAD2         3.0900    -1.3480    -1.4230 hc         1 ZYR       0.043700
     20 HAC1         3.4640    -0.4770     1.4800 hc         1 ZYR       0.044200
     21 HAC2         4.6330    -0.2110     0.1990 hc         1 ZYR       0.044200
     22 HAE1         3.1030     1.7750     0.6910 hc         1 ZYR       0.050700
     23 HAE2         3.1660     1.2890    -0.9880 hc         1 ZYR       0.050700
     24 HAB         -4.3160     0.7000     0.0030 h5         1 ZYR       0.049800
@<TRIPOS>BOND
     1     1     2 2   
     2     2     3 1   
     3     2    14 1   
     4     3     4 1   
     5     3    11 2   
     6     4     5 1   
     7     4     9 2   
     8     5     6 1   
     9     5    16 1   
    10     5    17 1   
    11     6     7 1   
    12     6    18 1   
    13     6    19 1   
    14     7     8 1   
    15     7    20 1   
    16     7    21 1   
    17     8     9 1   
    18     8    22 1   
    19     8    23 1   
    20     9    10 1   
    21    10    11 1   
    22    11    12 1   
    23    12    13 2   
    24    13    14 1   
    25    13    24 1   
    26    14    15 1   
@<TRIPOS>SUBSTRUCTURE
     1 ZYR         1 TEMP              0 ****  ****    0 ROOT
