@<TRIPOS>MOLECULE
ZYR
   24    26     1     0     0
SMALL
No Charge or Current Charge


@<TRIPOS>ATOM
      1 OAA         -1.4140    -2.5660     0.0440 o          1 ZYR      -0.538000
      2 CAL         -1.6670    -1.3710     0.0250 c          1 ZYR       0.593600
      3 CAN         -0.6940    -0.2660    -0.0010 cc         1 ZYR      -0.231600
      4 CAK          0.7340    -0.3940    -0.0180 cc         1 ZYR      -0.029300
      5 CAF          1.4640    -1.7260    -0.0160 c6         1 ZYR      -0.015100
      6 CAD          2.9740    -1.5520    -0.3330 c6         1 ZYR      -0.074400
      7 CAC          3.5820    -0.3460     0.4230 c6         1 ZYR      -0.071400
      8 CAE          2.8930     0.9740     0.0000 c6         1 ZYR      -0.001100
      9 CAJ          1.3880     0.8180    -0.0080 cd         1 ZYR      -0.221300
     10 SAI          0.2670     2.1920    -0.0120 ss         1 ZYR       0.257000
     11 CAM         -1.0920     1.0510    -0.0010 cd         1 ZYR       0.062400
     12 NAG         -2.4410     1.4190     0.0100 nd         1 ZYR      -0.594100
     13 CAB         -3.3010     0.3980     0.0240 cc         1 ZYR       0.497800
     14 NAH         -2.9410    -0.9220     0.0330 ns         1 ZYR      -0.420400
     15 HAH         -3.6640    -1.6270     0.0500 hn         1 ZYR       0.330500
     16 HAF1         1.3530    -2.2090     0.9650 hc         1 ZYR       0.064200
     17 HAF2         1.0330    -2.4170    -0.7530 hc         1 ZYR       0.064200
     18 HAD1         3.5150    -2.4730    -0.0760 hc         1 ZYR       0.043700
     19 HAD2         3.1060    -1.4060    -1.4140 hc         1 ZYR       0.043700
     20 HAC1         3.4660    -0.4950     1.5050 hc         1 ZYR       0.044200
     21 HAC2         4.6620    -0.2820     0.2290 hc         1 ZYR       0.044200
     22 HAE1         3.1980     1.7840     0.6770 hc         1 ZYR       0.050700
     23 HAE2         3.2400     1.2620    -1.0020 hc         1 ZYR       0.050700
     24 HAB         -4.3750     0.5380     0.0340 h5         1 ZYR       0.049800
@<TRIPOS>BOND
     1     1     2 2   
     2     2     3 1   
     3     2    14 1   
     4     3     4 1   
     5     3    11 2   
     6     4     5 1   
     7     4     9 2   
     8     5     6 1   
     9     5    16 1   
    10     5    17 1   
    11     6     7 1   
    12     6    18 1   
    13     6    19 1   
    14     7     8 1   
    15     7    20 1   
    16     7    21 1   
    17     8     9 1   
    18     8    22 1   
    19     8    23 1   
    20     9    10 1   
    21    10    11 1   
    22    11    12 1   
    23    12    13 2   
    24    13    14 1   
    25    13    24 1   
    26    14    15 1   
@<TRIPOS>SUBSTRUCTURE
     1 ZYR         1 TEMP              0 ****  ****    0 ROOT
