@<TRIPOS>MOLECULE
ZYS
   36    37     1     0     0
SMALL
abcg2


@<TRIPOS>ATOM
      1 CAA         -4.5240     0.4870    -1.2070 c3         1 ZYS      -0.105433
      2 CAS         -4.1930    -0.5400    -0.1240 c3         1 ZYS       0.265200
      3 CAB         -4.5390    -0.0040     1.2640 c3         1 ZYS      -0.105433
      4 CAC         -4.9780    -1.8230    -0.3830 c3         1 ZYS      -0.105433
      5 NAL         -2.7720    -0.9240    -0.1880 nu         1 ZYS      -0.917100
      6 CAQ         -1.7240    -0.1210    -0.0480 cc         1 ZYS       0.792300
      7 SAM         -0.1110    -0.7850    -0.1330 ss         1 ZYS      -0.117400
      8 NAK         -1.7910     1.1710     0.1570 nd         1 ZYS      -0.828000
      9 CAO         -0.5590     1.7180     0.2500 cd         1 ZYS       0.700900
     10 NAD         -0.4520     3.0310     0.4390 nv         1 ZYS      -1.053900
     11 CAR          0.5290     0.8340     0.1380 cc         1 ZYS      -0.472600
     12 CAN          1.8980     1.1930     0.1480 c          1 ZYS       0.647300
     13 OAE          2.2780     2.3700     0.2080 o          1 ZYS      -0.606100
     14 CAP          2.9240     0.1090     0.0620 ca         1 ZYS      -0.145600
     15 CAI          3.9850     0.2480    -0.8310 ca         1 ZYS      -0.075500
     16 CAG          4.9650    -0.7300    -0.9110 ca         1 ZYS      -0.120500
     17 CAF          4.9120    -1.8410    -0.0790 ca         1 ZYS      -0.099000
     18 CAH          3.8730    -1.9720     0.8320 ca         1 ZYS      -0.120500
     19 CAJ          2.8790    -1.0040     0.8990 ca         1 ZYS      -0.075500
     20 HAA1        -3.9980     1.4270    -1.0450 hc         1 ZYS       0.047922
     21 HAA2        -4.2580     0.1080    -2.1950 hc         1 ZYS       0.047922
     22 HAA3        -5.5950     0.6920    -1.2010 hc         1 ZYS       0.047922
     23 HAB1        -5.6010     0.2410     1.3110 hc         1 ZYS       0.047922
     24 HAB2        -4.3350    -0.7540     2.0300 hc         1 ZYS       0.047922
     25 HAB3        -3.9760     0.8960     1.5050 hc         1 ZYS       0.047922
     26 HAC1        -4.7410    -2.2440    -1.3620 hc         1 ZYS       0.047922
     27 HAC2        -4.7670    -2.5780     0.3770 hc         1 ZYS       0.047922
     28 HAC3        -6.0480    -1.6170    -0.3560 hc         1 ZYS       0.047922
     29 HAD1        -1.2780     3.5960     0.5310 hn         1 ZYS       0.516000
     30 HAD2         0.4590     3.4550     0.4950 hn         1 ZYS       0.516000
     31 HAI          4.0350     1.1160    -1.4760 ha         1 ZYS       0.123000
     32 HAJ          2.0860    -1.1090     1.6290 ha         1 ZYS       0.123000
     33 HAG          5.7750    -0.6220    -1.6210 ha         1 ZYS       0.112500
     34 HAF          5.6810    -2.5990    -0.1370 ha         1 ZYS       0.110000
     35 HAH          3.8360    -2.8260     1.4960 ha         1 ZYS       0.112500
     36 HAL         -2.5830    -1.9040    -0.3300 hn         1 ZYS       0.502000
@<TRIPOS>BOND
     1     1     2 1   
     2     1    20 1   
     3     1    21 1   
     4     1    22 1   
     5     2     3 1   
     6     2     4 1   
     7     2     5 1   
     8     3    23 1   
     9     3    24 1   
    10     3    25 1   
    11     4    26 1   
    12     4    27 1   
    13     4    28 1   
    14     5     6 1   
    15     5    36 1   
    16     6     7 1   
    17     6     8 2   
    18     7    11 1   
    19     8     9 1   
    20     9    10 1   
    21     9    11 2   
    22    10    29 1   
    23    10    30 1   
    24    11    12 1   
    25    12    13 2   
    26    12    14 1   
    27    14    15 ar  
    28    14    19 ar  
    29    15    16 ar  
    30    15    31 1   
    31    16    17 ar  
    32    16    33 1   
    33    17    18 ar  
    34    17    34 1   
    35    18    19 ar  
    36    18    35 1   
    37    19    32 1   
@<TRIPOS>SUBSTRUCTURE
     1 ZYS         1 TEMP              0 ****  ****    0 ROOT
