@<TRIPOS>MOLECULE
ZYS
   36    37     1     0     0
SMALL
No Charge or Current Charge


@<TRIPOS>ATOM
      1 CAA         -4.7710     0.6730    -0.8360 c3         1 ZYS      -0.105433
      2 CAS         -4.2000    -0.5390    -0.0590 c3         1 ZYS       0.265200
      3 CAB         -4.2280    -0.2980     1.4700 c3         1 ZYS      -0.105433
      4 CAC         -5.0430    -1.7920    -0.3890 c3         1 ZYS      -0.105433
      5 NAL         -2.8310    -0.8340    -0.5060 nu         1 ZYS      -0.917100
      6 CAQ         -1.6960    -0.0770    -0.4470 cc         1 ZYS       0.792300
      7 SAM         -0.1610    -0.6740    -1.0330 ss         1 ZYS      -0.117400
      8 NAK         -1.7060     1.1340     0.0580 nd         1 ZYS      -0.828000
      9 CAO         -0.4530     1.6320    -0.0070 cd         1 ZYS       0.700900
     10 NAD         -0.3330     2.8250     0.5320 nv         1 ZYS      -1.053900
     11 CAR          0.5060     0.8800    -0.6030 cc         1 ZYS      -0.472600
     12 CAN          1.9330     1.2360    -0.5770 c          1 ZYS       0.647300
     13 OAE          2.2930     2.4010    -0.7030 o          1 ZYS      -0.606100
     14 CAP          2.9310     0.1600    -0.2070 ca         1 ZYS      -0.145600
     15 CAI          4.2550     0.2500    -0.6930 ca         1 ZYS      -0.075500
     16 CAG          5.2100    -0.7250    -0.3570 ca         1 ZYS      -0.120500
     17 CAF          4.8600    -1.7940     0.4820 ca         1 ZYS      -0.099000
     18 CAH          3.5550    -1.8830     0.9920 ca         1 ZYS      -0.120500
     19 CAJ          2.5970    -0.9110     0.6560 ca         1 ZYS      -0.075500
     20 HAA1        -4.2450     1.6010    -0.5860 hc         1 ZYS       0.047922
     21 HAA2        -4.6910     0.5170    -1.9190 hc         1 ZYS       0.047922
     22 HAA3        -5.8300     0.8210    -0.5930 hc         1 ZYS       0.047922
     23 HAB1        -5.2610    -0.1960     1.8240 hc         1 ZYS       0.047922
     24 HAB2        -3.7670    -1.1360     2.0060 hc         1 ZYS       0.047922
     25 HAB3        -3.6960     0.6190     1.7470 hc         1 ZYS       0.047922
     26 HAC1        -5.0350    -2.0020    -1.4660 hc         1 ZYS       0.047922
     27 HAC2        -4.6580    -2.6760     0.1350 hc         1 ZYS       0.047922
     28 HAC3        -6.0870    -1.6500    -0.0840 hc         1 ZYS       0.047922
     29 HAD1        -1.2090     3.3200     0.6240 hn         1 ZYS       0.516000
     30 HAD2         0.4590     3.3670     0.2050 hn         1 ZYS       0.516000
     31 HAI          4.5420     1.0740    -1.3440 ha         1 ZYS       0.123000
     32 HAJ          1.6040    -0.9840     1.0920 ha         1 ZYS       0.123000
     33 HAG          6.2230    -0.6490    -0.7460 ha         1 ZYS       0.112500
     34 HAF          5.6010    -2.5470     0.7440 ha         1 ZYS       0.110000
     35 HAH          3.2870    -2.7020     1.6550 ha         1 ZYS       0.112500
     36 HAL         -2.6650    -1.7440    -0.9240 hn         1 ZYS       0.502000
@<TRIPOS>BOND
     1     1     2 1   
     2     1    20 1   
     3     1    21 1   
     4     1    22 1   
     5     2     3 1   
     6     2     4 1   
     7     2     5 1   
     8     3    23 1   
     9     3    24 1   
    10     3    25 1   
    11     4    26 1   
    12     4    27 1   
    13     4    28 1   
    14     5     6 1   
    15     5    36 1   
    16     6     7 1   
    17     6     8 2   
    18     7    11 1   
    19     8     9 1   
    20     9    10 1   
    21     9    11 2   
    22    10    29 1   
    23    10    30 1   
    24    11    12 1   
    25    12    13 2   
    26    12    14 1   
    27    14    15 ar  
    28    14    19 ar  
    29    15    16 ar  
    30    15    31 1   
    31    16    17 ar  
    32    16    33 1   
    33    17    18 ar  
    34    17    34 1   
    35    18    19 ar  
    36    18    35 1   
    37    19    32 1   
@<TRIPOS>SUBSTRUCTURE
     1 ZYS         1 TEMP              0 ****  ****    0 ROOT
