@<TRIPOS>MOLECULE
ZYT
   24    25     1     0     0
SMALL
No Charge or Current Charge


@<TRIPOS>ATOM
      1 CAA          4.6730    -0.0550     1.1010 c3         1 ZYT       0.045900
      2 SAI          3.3090    -1.1990     0.5960 ss         1 ZYT      -0.355300
      3 CAL          2.0800    -0.0870     0.0210 cc         1 ZYT       0.536800
      4 NAG          0.8820    -0.5440    -0.4560 na         1 ZYT      -0.275500
      5 NAH          2.2090     1.2230    -0.0070 nd         1 ZYT      -0.755000
      6 CAM          1.0160     1.6130    -0.5280 cd         1 ZYT       0.499300
      7 OAB          0.8570     2.9180    -0.6800 oh         1 ZYT      -0.635300
      8 CAN          0.1620     0.5800    -0.8200 cc         1 ZYT      -0.239300
      9 CAC         -1.2250     0.5950    -1.4060 c3         1 ZYT       0.087200
     10 CAK         -2.2880     0.1630    -0.4320 cc         1 ZYT      -0.200300
     11 CAF         -3.1570     0.9580     0.2730 cd         1 ZYT      -0.124000
     12 CAD         -4.0510     0.2300     1.1010 cd         1 ZYT      -0.130000
     13 CAE         -3.8770    -1.1290     1.0320 cc         1 ZYT      -0.232000
     14 SAJ         -2.5800    -1.5410    -0.0850 ss         1 ZYT       0.167000
     15 HAA1         5.5200    -0.6350     1.4870 h1         1 ZYT       0.073367
     16 HAA2         5.0060     0.5340     0.2360 h1         1 ZYT       0.073367
     17 HAA3         4.3180     0.6270     1.8840 h1         1 ZYT       0.073367
     18 HAG          0.6070    -1.5150    -0.5180 hn         1 ZYT       0.364000
     19 HAB          1.7090     3.2620    -0.3440 ho         1 ZYT       0.478000
     20 HAC1        -1.4570     1.6020    -1.7750 hc         1 ZYT       0.064700
     21 HAC2        -1.2540    -0.0550    -2.2890 hc         1 ZYT       0.064700
     22 HAF         -3.1580     2.0430     0.2060 ha         1 ZYT       0.135000
     23 HAD         -4.8020     0.7030     1.7290 ha         1 ZYT       0.134000
     24 HAE         -4.4120    -1.9160     1.5490 h4         1 ZYT       0.149000
@<TRIPOS>BOND
     1     1     2 1   
     2     1    15 1   
     3     1    16 1   
     4     1    17 1   
     5     2     3 1   
     6     3     4 1   
     7     3     5 2   
     8     4     8 1   
     9     4    18 1   
    10     5     6 1   
    11     6     7 1   
    12     6     8 2   
    13     7    19 1   
    14     8     9 1   
    15     9    10 1   
    16     9    20 1   
    17     9    21 1   
    18    10    11 2   
    19    10    14 1   
    20    11    12 1   
    21    11    22 1   
    22    12    13 2   
    23    12    23 1   
    24    13    14 1   
    25    13    24 1   
@<TRIPOS>SUBSTRUCTURE
     1 ZYT         1 TEMP              0 ****  ****    0 ROOT
