@<TRIPOS>MOLECULE
ZYT
   24    25     1     0     0
SMALL
abcg2


@<TRIPOS>ATOM
      1 CAA          4.5700    -0.1680     1.1130 c3         1 ZYT       0.045900
      2 SAI          3.5130    -1.2200     0.0970 ss         1 ZYT      -0.355300
      3 CAL          2.1810    -0.1280    -0.1880 cc         1 ZYT       0.536800
      4 NAG          1.0440    -0.5370    -0.7720 na         1 ZYT      -0.275500
      5 NAH          2.1470     1.1540     0.0900 nd         1 ZYT      -0.755000
      6 CAM          0.9300     1.5770    -0.3400 cd         1 ZYT       0.499300
      7 OAB          0.5210     2.8490    -0.2070 oh         1 ZYT      -0.635300
      8 CAN          0.2100     0.5600    -0.8960 cc         1 ZYT      -0.239300
      9 CAC         -1.1740     0.4940    -1.4410 c3         1 ZYT       0.087200
     10 CAK         -2.2140     0.1900    -0.4030 cc         1 ZYT      -0.200300
     11 CAF         -3.2850     0.9470    -0.0380 cd         1 ZYT      -0.124000
     12 CAD         -4.0640     0.3560     0.9970 cd         1 ZYT      -0.130000
     13 CAE         -3.5690    -0.8440     1.4020 cc         1 ZYT      -0.232000
     14 SAJ         -2.1520    -1.2620     0.5270 ss         1 ZYT       0.167000
     15 HAA1         5.4560    -0.7580     1.3360 h1         1 ZYT       0.073367
     16 HAA2         4.8630     0.7290     0.5740 h1         1 ZYT       0.073367
     17 HAA3         4.0740     0.1020     2.0420 h1         1 ZYT       0.073367
     18 HAG          0.8400    -1.4710    -1.0930 hn         1 ZYT       0.364000
     19 HAB          1.2540     3.3790     0.1270 ho         1 ZYT       0.478000
     20 HAC1        -1.4270     1.4540    -1.8940 hc         1 ZYT       0.064700
     21 HAC2        -1.2200    -0.2410    -2.2510 hc         1 ZYT       0.064700
     22 HAF         -3.5080     1.9040    -0.4910 ha         1 ZYT       0.135000
     23 HAD         -4.9490     0.8090     1.4200 ha         1 ZYT       0.134000
     24 HAE         -3.9550    -1.5020     2.1650 h4         1 ZYT       0.149000
@<TRIPOS>BOND
     1     1     2 1   
     2     1    15 1   
     3     1    16 1   
     4     1    17 1   
     5     2     3 1   
     6     3     4 1   
     7     3     5 2   
     8     4     8 1   
     9     4    18 1   
    10     5     6 1   
    11     6     7 1   
    12     6     8 2   
    13     7    19 1   
    14     8     9 1   
    15     9    10 1   
    16     9    20 1   
    17     9    21 1   
    18    10    11 2   
    19    10    14 1   
    20    11    12 1   
    21    11    22 1   
    22    12    13 2   
    23    12    23 1   
    24    13    14 1   
    25    13    24 1   
@<TRIPOS>SUBSTRUCTURE
     1 ZYT         1 TEMP              0 ****  ****    0 ROOT
