@<TRIPOS>MOLECULE
ZYU
   26    28     1     0     0
SMALL
No Charge or Current Charge


@<TRIPOS>ATOM
      1 CAO         -2.1630    -1.1630     0.4160 c6         1 ZYU       0.178800
      2 CAN         -3.6170    -0.8100    -0.0170 c6         1 ZYU       0.137600
      3 OAL         -3.9290     0.5660     0.2950 os         1 ZYU      -0.446000
      4 CAK         -3.0520     1.4950    -0.3810 c6         1 ZYU       0.137600
      5 CAP         -1.5680     1.2610     0.0310 c6         1 ZYU       0.178800
      6 C6           0.2230    -0.5400    -0.2240 ca         1 ZYU       0.460900
      7 N1           0.4510    -1.7810    -0.7100 nb         1 ZYU      -0.311000
      8 C2           1.7400    -2.1630    -0.8480 ca         1 ZYU       0.186900
      9 N3           2.8340    -1.4320    -0.5470 nb         1 ZYU      -0.222000
     10 C4           2.5980    -0.2030    -0.0600 ca         1 ZYU       0.121500
     11 C5           1.3290     0.2950     0.1230 ca         1 ZYU      -0.089600
     12 N7           1.3640     1.5850     0.6600 nc         1 ZYU      -0.560100
     13 C8           2.6800     1.8270     0.7750 cd         1 ZYU       0.399700
     14 N9           3.4770     0.7610     0.3440 na         1 ZYU      -0.411300
     15 N6          -1.1490    -0.1750    -0.0990 nh         1 ZYU      -0.762300
     16 HAO1        -2.1250    -1.1960     1.5150 h1         1 ZYU       0.074200
     17 HAO2        -1.9500    -2.1810     0.0600 h1         1 ZYU       0.074200
     18 HAN1        -3.7320    -0.9700    -1.0990 h1         1 ZYU       0.055200
     19 HAN2        -4.3290    -1.4680     0.5010 h1         1 ZYU       0.055200
     20 HAK1        -3.1600     1.3690    -1.4680 h1         1 ZYU       0.055200
     21 HAK2        -3.3500     2.5230    -0.1280 h1         1 ZYU       0.055200
     22 HAP1        -0.9440     1.9020    -0.6090 h1         1 ZYU       0.074200
     23 HAP2        -1.4330     1.6020     1.0680 h1         1 ZYU       0.074200
     24 H2           1.9140    -3.1620    -1.2420 h5         1 ZYU       0.046100
     25 H9           4.4870     0.7230     0.3420 hn         1 ZYU       0.370000
     26 H8           3.1240     2.7390     1.1580 h5         1 ZYU       0.066800
@<TRIPOS>BOND
     1     1     2 1   
     2     1    15 1   
     3     1    16 1   
     4     1    17 1   
     5     2     3 1   
     6     2    18 1   
     7     2    19 1   
     8     3     4 1   
     9     4     5 1   
    10     4    20 1   
    11     4    21 1   
    12     5    15 1   
    13     5    22 1   
    14     5    23 1   
    15     6     7 ar  
    16     6    11 ar  
    17     6    15 1   
    18     7     8 ar  
    19     8     9 ar  
    20     8    24 1   
    21     9    10 ar  
    22    10    11 ar  
    23    10    14 1   
    24    11    12 1   
    25    12    13 2   
    26    13    14 1   
    27    13    26 1   
    28    14    25 1   
@<TRIPOS>SUBSTRUCTURE
     1 ZYU         1 TEMP              0 ****  ****    0 ROOT
