@<TRIPOS>MOLECULE
ZYU
   26    28     1     0     0
SMALL
bcc


@<TRIPOS>ATOM
      1 CAO         -2.2170    -1.2270     0.2620 c6         1 ZYU       0.178800
      2 CAN         -3.4140    -0.7170    -0.5200 c6         1 ZYU       0.114400
      3 OAL         -3.8660     0.5300    -0.0420 os         1 ZYU      -0.399600
      4 CAK         -2.8420     1.4970    -0.1070 c6         1 ZYU       0.114400
      5 CAP         -1.6230     1.0810     0.6960 c6         1 ZYU       0.178800
      6 C6           0.1260    -0.5500     0.0620 ca         1 ZYU       0.789200
      7 N1           0.4220    -1.8370    -0.1650 nb         1 ZYU      -0.837000
      8 C2           1.6760    -2.2150    -0.3720 ca         1 ZYU       0.712900
      9 N3           2.7630    -1.4670    -0.3870 nb         1 ZYU      -0.748000
     10 C4           2.4710    -0.1870    -0.1620 ca         1 ZYU       0.449800
     11 C5           1.2110     0.3630     0.0690 ca         1 ZYU      -0.220200
     12 N7           1.3190     1.7230     0.2450 nc         1 ZYU      -0.560100
     13 C8           2.5900     1.9750     0.1280 cd         1 ZYU       0.399700
     14 N9           3.3310     0.8640    -0.1170 na         1 ZYU      -0.361000
     15 N6          -1.1640    -0.2250     0.2540 nh         1 ZYU      -0.762300
     16 HAO1        -2.5070    -1.4450     1.2960 h1         1 ZYU       0.074200
     17 HAO2        -1.8560    -2.1490    -0.1830 h1         1 ZYU       0.074200
     18 HAN1        -3.1490    -0.6500    -1.5850 h1         1 ZYU       0.055200
     19 HAN2        -4.2390    -1.4240    -0.4240 h1         1 ZYU       0.055200
     20 HAK1        -2.5450     1.6770    -1.1500 h1         1 ZYU       0.055200
     21 HAK2        -3.2430     2.4280     0.2950 h1         1 ZYU       0.055200
     22 HAP1        -0.8400     1.8250     0.5780 h1         1 ZYU       0.074200
     23 HAP2        -1.8790     1.0320     1.7610 h1         1 ZYU       0.074200
     24 H2           1.8210    -3.2760    -0.5480 h5         1 ZYU       0.046100
     25 H9           4.3320     0.8280    -0.2370 hn         1 ZYU       0.319700
     26 H8           3.0420     2.9510     0.2090 h5         1 ZYU       0.066800
@<TRIPOS>BOND
     1     1     2 1   
     2     1    15 1   
     3     1    16 1   
     4     1    17 1   
     5     2     3 1   
     6     2    18 1   
     7     2    19 1   
     8     3     4 1   
     9     4     5 1   
    10     4    20 1   
    11     4    21 1   
    12     5    15 1   
    13     5    22 1   
    14     5    23 1   
    15     6     7 ar  
    16     6    11 ar  
    17     6    15 1   
    18     7     8 ar  
    19     8     9 ar  
    20     8    24 1   
    21     9    10 ar  
    22    10    11 ar  
    23    10    14 1   
    24    11    12 1   
    25    12    13 2   
    26    13    14 1   
    27    13    26 1   
    28    14    25 1   
@<TRIPOS>SUBSTRUCTURE
     1 ZYU         1 TEMP              0 ****  ****    0 ROOT
