@<TRIPOS>MOLECULE
ZYV
   31    33     1     0     0
SMALL
abcg2


@<TRIPOS>ATOM
      1 C5           1.7000    -0.4080     0.0520 ca         1 ZYV      -0.246200
      2 N7           1.8570    -1.7720    -0.0020 na         1 ZYV      -0.295600
      3 C8           3.1190    -2.0360     0.3850 cc         1 ZYV       0.428700
      4 N9           3.8060    -0.9670     0.6880 nd         1 ZYV      -0.639700
      5 C4           2.9370     0.0660     0.4990 ca         1 ZYV       0.249000
      6 N3           3.2010     1.3550     0.7410 nb         1 ZYV      -0.147000
      7 C2           2.1650     2.1370     0.5350 ca         1 ZYV       0.150900
      8 N1           0.9540     1.7980     0.0990 nb         1 ZYV      -0.280000
      9 C6           0.6670     0.5260    -0.1770 ca         1 ZYV       0.422900
     10 N6          -0.5790     0.2290    -0.6100 nh         1 ZYV      -0.789300
     11 CAG         -1.6140     1.2460    -0.6670 c6         1 ZYV       0.188800
     12 CAF         -0.9090    -0.9110    -1.4450 c6         1 ZYV       0.188800
     13 CAE         -2.2450    -1.4860    -1.0160 c6         1 ZYV       0.143600
     14 OAL         -3.2570    -0.5040    -1.0340 os         1 ZYV      -0.440000
     15 CAP         -2.9530     0.6430    -0.2550 c6         1 ZYV       0.152300
     16 CAD         -3.0190     0.3640     1.2420 c3         1 ZYV       0.122800
     17 NAA         -4.3270    -0.1530     1.6110 n8         1 ZYV      -0.991200
     18 H7           1.1710    -2.4770    -0.2140 hn         1 ZYV       0.357000
     19 H8           3.4870    -3.0500     0.4300 h5         1 ZYV       0.066800
     20 H2           2.3060     3.1940     0.7330 h5         1 ZYV       0.050100
     21 HAG1        -1.3590     2.0700    -0.0050 h1         1 ZYV       0.073200
     22 HAG2        -1.6830     1.6520    -1.6830 h1         1 ZYV       0.073200
     23 HAF1        -0.9610    -0.5850    -2.4910 h1         1 ZYV       0.048700
     24 HAF2        -0.1520    -1.6880    -1.4040 h1         1 ZYV       0.048700
     25 HAP         -3.7350     1.3700    -0.4930 h1         1 ZYV       0.095700
     26 HAE1        -2.5470    -2.2700    -1.7110 h1         1 ZYV       0.049700
     27 HAE2        -2.1440    -1.9450    -0.0250 h1         1 ZYV       0.049700
     28 HAD1        -2.1820    -0.2770     1.5530 h1         1 ZYV       0.037700
     29 HAD2        -2.8690     1.3190     1.7530 h1         1 ZYV       0.037700
     30 HAA1        -4.4380    -1.0920     1.2510 hn         1 ZYV       0.396000
     31 HAA2        -4.3760    -0.2410     2.6180 hn         1 ZYV       0.396000
@<TRIPOS>BOND
     1     1     2 1   
     2     1     5 ar  
     3     1     9 ar  
     4     2     3 1   
     5     2    18 1   
     6     3     4 2   
     7     3    19 1   
     8     4     5 1   
     9     5     6 ar  
    10     6     7 ar  
    11     7     8 ar  
    12     7    20 1   
    13     8     9 ar  
    14     9    10 1   
    15    10    11 1   
    16    10    12 1   
    17    11    15 1   
    18    11    21 1   
    19    11    22 1   
    20    12    13 1   
    21    12    23 1   
    22    12    24 1   
    23    13    14 1   
    24    13    26 1   
    25    13    27 1   
    26    14    15 1   
    27    15    16 1   
    28    15    25 1   
    29    16    17 1   
    30    16    28 1   
    31    16    29 1   
    32    17    30 1   
    33    17    31 1   
@<TRIPOS>SUBSTRUCTURE
     1 ZYV         1 TEMP              0 ****  ****    0 ROOT
