@<TRIPOS>MOLECULE
ZYV
   31    33     1     0     0
SMALL
No Charge or Current Charge


@<TRIPOS>ATOM
      1 C5           1.8080    -0.2960     0.1710 ca         1 ZYV      -0.246200
      2 N7           1.7150    -1.6180     0.5110 na         1 ZYV      -0.295600
      3 C8           2.9910    -2.0290     0.8740 cc         1 ZYV       0.428700
      4 N9           3.8680    -1.0050     0.7830 nd         1 ZYV      -0.639700
      5 C4           3.1100     0.0830     0.3460 ca         1 ZYV       0.249000
      6 N3           3.5000     1.3510     0.1150 nb         1 ZYV      -0.147000
      7 C2           2.5260     2.2030    -0.2850 ca         1 ZYV       0.150900
      8 N1           1.2160     1.9100    -0.4780 nb         1 ZYV      -0.280000
      9 C6           0.8430     0.6310    -0.2560 ca         1 ZYV       0.422900
     10 N6          -0.5120     0.2870    -0.4480 nh         1 ZYV      -0.789300
     11 CAG         -1.5850     1.3290    -0.2940 c6         1 ZYV       0.188800
     12 CAF         -0.8610    -0.7610    -1.4600 c6         1 ZYV       0.188800
     13 CAE         -2.2870    -1.3440    -1.2310 c6         1 ZYV       0.143600
     14 OAL         -3.2730    -0.2820    -1.1430 os         1 ZYV      -0.440000
     15 CAP         -3.0040     0.7040    -0.1010 c6         1 ZYV       0.152300
     16 CAD         -3.1950     0.0650     1.3200 c3         1 ZYV       0.122800
     17 NAA         -4.5350    -0.5340     1.5570 n8         1 ZYV      -0.991200
     18 H7           0.8810    -2.1910     0.5300 hn         1 ZYV       0.357000
     19 H8           3.2090    -3.0420     1.1920 h5         1 ZYV       0.066800
     20 H2           2.8270     3.2320    -0.4700 h5         1 ZYV       0.050100
     21 HAG1        -1.3710     1.9780     0.5680 h1         1 ZYV       0.073200
     22 HAG2        -1.6090     1.9750    -1.1840 h1         1 ZYV       0.073200
     23 HAF1        -0.8170    -0.3270    -2.4700 h1         1 ZYV       0.048700
     24 HAF2        -0.1390    -1.5880    -1.4360 h1         1 ZYV       0.048700
     25 HAP         -3.7450     1.5100    -0.1950 h1         1 ZYV       0.095700
     26 HAE1        -2.5520    -2.0050    -2.0680 h1         1 ZYV       0.049700
     27 HAE2        -2.3050    -1.9470    -0.3140 h1         1 ZYV       0.049700
     28 HAD1        -2.4310    -0.7090     1.4770 h1         1 ZYV       0.037700
     29 HAD2        -3.0300     0.8440     2.0770 h1         1 ZYV       0.037700
     30 HAA1        -4.7050    -1.2450     0.8360 hn         1 ZYV       0.396000
     31 HAA2        -4.5170    -1.0710     2.4330 hn         1 ZYV       0.396000
@<TRIPOS>BOND
     1     1     2 1   
     2     1     5 ar  
     3     1     9 ar  
     4     2     3 1   
     5     2    18 1   
     6     3     4 2   
     7     3    19 1   
     8     4     5 1   
     9     5     6 ar  
    10     6     7 ar  
    11     7     8 ar  
    12     7    20 1   
    13     8     9 ar  
    14     9    10 1   
    15    10    11 1   
    16    10    12 1   
    17    11    15 1   
    18    11    21 1   
    19    11    22 1   
    20    12    13 1   
    21    12    23 1   
    22    12    24 1   
    23    13    14 1   
    24    13    26 1   
    25    13    27 1   
    26    14    15 1   
    27    15    16 1   
    28    15    25 1   
    29    16    17 1   
    30    16    28 1   
    31    16    29 1   
    32    17    30 1   
    33    17    31 1   
@<TRIPOS>SUBSTRUCTURE
     1 ZYV         1 TEMP              0 ****  ****    0 ROOT
