@<TRIPOS>MOLECULE
ZYW
   32    34     1     0     0
SMALL
No Charge or Current Charge


@<TRIPOS>ATOM
      1 Br           0.9150     2.4570     0.0320 br         1 ZYW      -0.084100
      2 CAM          1.5730     0.6510     0.0970 ca         1 ZYW      -0.168900
      3 CAC          2.9330     0.4040     0.3650 ca         1 ZYW       0.425900
      4 NAJ          3.4680    -0.8430     0.4280 nb         1 ZYW      -0.695000
      5 CAP          2.6300    -1.8720     0.2190 ca         1 ZYW       0.399500
      6 NAK          2.8550    -3.2330     0.2170 na         1 ZYW      -0.159100
      7 NAI          1.6770    -3.9590    -0.0480 nc         1 ZYW      -0.510100
      8 CAD          0.7420    -3.0120    -0.2050 cd         1 ZYW       0.368800
      9 CAO          1.3100    -1.7040    -0.0440 ca         1 ZYW      -0.322900
     10 CAN          0.7270    -0.4480    -0.1170 ca         1 ZYW       0.441000
     11 NAQ         -0.6420    -0.2890    -0.3890 nh         1 ZYW      -0.805400
     12 CAH         -1.6470    -0.5540     0.6870 c6         1 ZYW       0.173800
     13 CAG         -1.1520    -0.5210    -1.7750 c6         1 ZYW       0.164800
     14 CAF         -2.5510     0.1280    -1.9940 c6         1 ZYW       0.148600
     15 OAL         -3.4740    -0.2770    -0.9560 os         1 ZYW      -0.429000
     16 CAR         -3.0270     0.1050     0.3720 c6         1 ZYW       0.163300
     17 CAE         -4.1190    -0.3140     1.4140 c3         1 ZYW       0.155800
     18 NAA         -5.4500     0.3350     1.2550 n8         1 ZYW      -0.980200
     19 HAC          3.6210     1.2320     0.5360 h4         1 ZYW       0.036100
     20 HAK          3.7530    -3.6780     0.3830 hn         1 ZYW       0.390000
     21 HAD         -0.2780    -3.3060    -0.4210 h4         1 ZYW       0.051800
     22 HAH1        -1.7880    -1.6380     0.8090 h1         1 ZYW       0.054700
     23 HAH2        -1.2820    -0.1610     1.6470 h1         1 ZYW       0.054700
     24 HAG1        -0.4520    -0.1000    -2.5120 h1         1 ZYW       0.051200
     25 HAG2        -1.2280    -1.6000    -1.9740 h1         1 ZYW       0.051200
     26 HAR         -2.9140     1.1980     0.4060 h1         1 ZYW       0.050700
     27 HAF1        -2.4570     1.2240    -1.9860 h1         1 ZYW       0.056200
     28 HAF2        -2.9520    -0.1720    -2.9720 h1         1 ZYW       0.056200
     29 HAE1        -4.2550    -1.4030     1.3630 h1         1 ZYW       0.036200
     30 HAE2        -3.7430    -0.0730     2.4190 h1         1 ZYW       0.036200
     31 HAA1        -6.0560     0.0580     2.0370 hn         1 ZYW       0.393000
     32 HAA2        -5.3480     1.3500     1.3750 hn         1 ZYW       0.393000
@<TRIPOS>BOND
     1     1     2 1   
     2     2     3 ar  
     3     2    10 ar  
     4     3     4 ar  
     5     3    19 1   
     6     4     5 ar  
     7     5     6 1   
     8     5     9 ar  
     9     6     7 1   
    10     6    20 1   
    11     7     8 2   
    12     8     9 1   
    13     8    21 1   
    14     9    10 ar  
    15    10    11 1   
    16    11    12 1   
    17    11    13 1   
    18    12    16 1   
    19    12    22 1   
    20    12    23 1   
    21    13    14 1   
    22    13    24 1   
    23    13    25 1   
    24    14    15 1   
    25    14    27 1   
    26    14    28 1   
    27    15    16 1   
    28    16    17 1   
    29    16    26 1   
    30    17    18 1   
    31    17    29 1   
    32    17    30 1   
    33    18    31 1   
    34    18    32 1   
@<TRIPOS>SUBSTRUCTURE
     1 ZYW         1 TEMP              0 ****  ****    0 ROOT
