@<TRIPOS>MOLECULE
ZYW
   32    34     1     0     0
SMALL
bcc


@<TRIPOS>ATOM
      1 BR           0.4260     2.0330     1.1400 br         1 ZYW      -0.084100
      2 CAM          1.2440     0.3860     0.7180 ca         1 ZYW      -0.234200
      3 CAC          2.6070     0.2600     1.0260 ca         1 ZYW       0.491200
      4 NAJ          3.3580    -0.7660     0.6860 nb         1 ZYW      -0.695000
      5 CAP          2.7110    -1.7020    -0.0010 ca         1 ZYW       0.464800
      6 NAK          3.2280    -2.8580    -0.4600 na         1 ZYW      -0.108800
      7 NAI          2.3150    -3.6060    -1.0830 nc         1 ZYW      -0.510100
      8 CAD          1.1850    -2.9490    -1.0370 cd         1 ZYW       0.368800
      9 CAO          1.3510    -1.7070    -0.3610 ca         1 ZYW      -0.388200
     10 CAN          0.5480    -0.6120     0.0240 ca         1 ZYW       0.302600
     11 NAQ         -0.7890    -0.5050    -0.2750 nh         1 ZYW      -0.667000
     12 CAH         -1.7670    -0.4760     0.8070 c6         1 ZYW       0.173800
     13 CAG         -1.3230    -1.1690    -1.4500 c6         1 ZYW       0.164800
     14 CAF         -2.5930    -0.4470    -1.8650 c6         1 ZYW       0.125400
     15 OAL         -3.5390    -0.4120    -0.8240 os         1 ZYW      -0.382600
     16 CAR         -3.0340     0.2210     0.3340 c6         1 ZYW       0.140100
     17 CAE         -4.1020     0.2040     1.4110 c3         1 ZYW       0.155800
     18 NAA         -5.2650     0.9820     1.0220 n8         1 ZYW      -0.869800
     19 HAC          3.1010     1.0590     1.5680 h4         1 ZYW       0.036100
     20 HAK          4.1810    -3.1790    -0.3790 hn         1 ZYW       0.339700
     21 HAD          0.3010    -3.3780    -1.4800 h4         1 ZYW       0.051800
     22 HAH1        -2.0040    -1.5050     1.1170 h1         1 ZYW       0.054700
     23 HAH2        -1.3700     0.0340     1.6820 h1         1 ZYW       0.054700
     24 HAG1        -0.6050    -1.1110    -2.2690 h1         1 ZYW       0.051200
     25 HAG2        -1.5480    -2.2260    -1.2610 h1         1 ZYW       0.051200
     26 HAR         -2.7710     1.2660     0.1000 h1         1 ZYW       0.050700
     27 HAF1        -2.3360     0.5690    -2.1950 h1         1 ZYW       0.056200
     28 HAF2        -3.0520    -0.9690    -2.7060 h1         1 ZYW       0.056200
     29 HAE1        -4.4160    -0.8290     1.5830 h1         1 ZYW       0.036200
     30 HAE2        -3.6350     0.5450     2.3450 h1         1 ZYW       0.036200
     31 HAA1        -5.9900     0.8650     1.7170 hn         1 ZYW       0.337800
     32 HAA2        -5.0300     1.9670     1.0370 hn         1 ZYW       0.337800
@<TRIPOS>BOND
     1     1     2 1   
     2     2     3 ar  
     3     2    10 ar  
     4     3     4 ar  
     5     3    19 1   
     6     4     5 ar  
     7     5     6 1   
     8     5     9 ar  
     9     6     7 1   
    10     6    20 1   
    11     7     8 2   
    12     8     9 1   
    13     8    21 1   
    14     9    10 ar  
    15    10    11 1   
    16    11    12 1   
    17    11    13 1   
    18    12    16 1   
    19    12    22 1   
    20    12    23 1   
    21    13    14 1   
    22    13    24 1   
    23    13    25 1   
    24    14    15 1   
    25    14    27 1   
    26    14    28 1   
    27    15    16 1   
    28    16    17 1   
    29    16    26 1   
    30    17    18 1   
    31    17    29 1   
    32    17    30 1   
    33    18    31 1   
    34    18    32 1   
@<TRIPOS>SUBSTRUCTURE
     1 ZYW         1 TEMP              0 ****  ****    0 ROOT
