@<TRIPOS>MOLECULE
ZYX
   25    25     1     0     0
SMALL
bcc


@<TRIPOS>ATOM
      1 C1           1.7430    -1.0770     2.6270 ca         1 ZYX      -0.267500
      2 C2           0.7110    -0.4930     1.9050 ca         1 ZYX      -0.026000
      3 C3           0.7890    -0.4610     0.5220 ca         1 ZYX      -0.148000
      4 C4           1.8810    -1.0020    -0.1520 ca         1 ZYX      -0.018300
      5 C5           2.9020    -1.5840     0.5980 ca         1 ZYX      -0.148000
      6 C6           2.8440    -1.6230     1.9810 ca         1 ZYX      -0.026000
      7 S            1.6510    -1.1450     4.3930 sy         1 ZYX       1.290200
      8 O1           3.0130    -1.1580     4.9050 o          1 ZYX      -0.620300
      9 O2           0.7170    -0.1170     4.8290 o          1 ZYX      -0.620300
     10 N1           0.9730    -2.6180     4.6900 n8         1 ZYX      -0.927700
     11 C7           1.9330    -1.0120    -1.6510 c3         1 ZYX      -0.085100
     12 C8           1.2540    -2.2610    -2.2350 c3         1 ZYX       0.145800
     13 N2           1.2760    -2.3530    -3.6820 n8         1 ZYX      -0.877800
     14 H2          -0.1430    -0.0580     2.4060 ha         1 ZYX       0.153000
     15 H3          -0.0130     0.0030    -0.0400 ha         1 ZYX       0.135000
     16 H5           3.7640    -2.0060     0.0950 ha         1 ZYX       0.135000
     17 H6           3.6550    -2.0710     2.5390 ha         1 ZYX       0.153000
     18 HN11         1.5890    -3.2600     5.1720 hn         1 ZYX       0.430800
     19 HN12         0.0580    -2.5650     5.1190 hn         1 ZYX       0.430800
     20 H71          2.9730    -0.9840    -1.9860 hc         1 ZYX       0.050200
     21 H72          1.4420    -0.1210    -2.0510 hc         1 ZYX       0.050200
     22 H81          1.7300    -3.1530    -1.8210 h1         1 ZYX       0.057700
     23 H82          0.2130    -2.2890    -1.9020 h1         1 ZYX       0.057700
     24 HN21         2.2330    -2.3410    -4.0100 hn         1 ZYX       0.337800
     25 HN22         0.8370    -1.5330    -4.0820 hn         1 ZYX       0.337800
@<TRIPOS>BOND
     1     1     2 ar  
     2     1     6 ar  
     3     1     7 1   
     4     2     3 ar  
     5     2    14 1   
     6     3     4 ar  
     7     3    15 1   
     8     4     5 ar  
     9     4    11 1   
    10     5     6 ar  
    11     5    16 1   
    12     6    17 1   
    13     7     8 2   
    14     7     9 2   
    15     7    10 1   
    16    10    18 1   
    17    10    19 1   
    18    11    12 1   
    19    11    20 1   
    20    11    21 1   
    21    12    13 1   
    22    12    22 1   
    23    12    23 1   
    24    13    24 1   
    25    13    25 1   
@<TRIPOS>SUBSTRUCTURE
     1 ZYX         1 TEMP              0 ****  ****    0 ROOT
