@<TRIPOS>MOLECULE
ZYX
   25    25     1     0     0
SMALL
No Charge or Current Charge


@<TRIPOS>ATOM
      1 C1           1.7360    -1.1270     2.6450 ca         1 ZYX      -0.267500
      2 C2           0.6820    -0.5520     1.9060 ca         1 ZYX      -0.008000
      3 C3           0.7420    -0.5230     0.5020 ca         1 ZYX      -0.130000
      4 C4           1.8490    -1.0660    -0.1770 ca         1 ZYX      -0.018300
      5 C5           2.8970    -1.6430     0.5640 ca         1 ZYX      -0.130000
      6 C6           2.8450    -1.6750     1.9690 ca         1 ZYX      -0.008000
      7 S            1.6650    -1.1640     4.4400 sy         1 ZYX       1.148600
      8 O1           2.9940    -1.3500     5.0160 o          1 ZYX      -0.549500
      9 O2           0.7240    -0.1700     4.9500 o          1 ZYX      -0.549500
     10 N1           0.9210    -2.5790     4.7510 n8         1 ZYX      -1.038100
     11 C7           1.9080    -1.0380    -1.6980 c3         1 ZYX      -0.085100
     12 C8           1.2670    -2.2940    -2.3200 c3         1 ZYX       0.145800
     13 N2           1.3280    -2.2590    -3.7970 n8         1 ZYX      -0.988200
     14 H2          -0.1830    -0.1280     2.4130 ha         1 ZYX       0.135000
     15 H3          -0.0760    -0.0780    -0.0590 ha         1 ZYX       0.117000
     16 H5           3.7560    -2.0710     0.0510 ha         1 ZYX       0.117000
     17 H6           3.6650    -2.1280     2.5240 ha         1 ZYX       0.135000
     18 HN11         1.5840    -2.9810     5.4100 hn         1 ZYX       0.486000
     19 HN12         0.1810    -2.2520     5.3690 hn         1 ZYX       0.486000
     20 H71          2.9500    -0.9590    -2.0300 hc         1 ZYX       0.050200
     21 H72          1.3950    -0.1440    -2.0750 hc         1 ZYX       0.050200
     22 H81          1.7930    -3.1910    -1.9600 h1         1 ZYX       0.057700
     23 H82          0.2160    -2.3650    -2.0060 h1         1 ZYX       0.057700
     24 HN21         2.3070    -2.1470    -4.0890 hn         1 ZYX       0.393000
     25 HN22         0.8780    -1.3980    -4.1300 hn         1 ZYX       0.393000
@<TRIPOS>BOND
     1     1     2 ar  
     2     1     6 ar  
     3     1     7 1   
     4     2     3 ar  
     5     2    14 1   
     6     3     4 ar  
     7     3    15 1   
     8     4     5 ar  
     9     4    11 1   
    10     5     6 ar  
    11     5    16 1   
    12     6    17 1   
    13     7     8 2   
    14     7     9 2   
    15     7    10 1   
    16    10    18 1   
    17    10    19 1   
    18    11    12 1   
    19    11    20 1   
    20    11    21 1   
    21    12    13 1   
    22    12    22 1   
    23    12    23 1   
    24    13    24 1   
    25    13    25 1   
@<TRIPOS>SUBSTRUCTURE
     1 ZYX         1 TEMP              0 ****  ****    0 ROOT
