@<TRIPOS>MOLECULE
ZYY
   60    63     1     0     0
SMALL
No Charge or Current Charge


@<TRIPOS>ATOM
      1 ND         -39.8930    31.9800   -22.7790 nh         1 ZYY      -0.680500
      2 NE         -38.2770    28.2090   -18.8700 n          1 ZYY      -0.398800
      3 NF         -38.1720    34.6680   -21.1230 n          1 ZYY      -0.128800
      4 NG         -38.5340    30.6600   -20.2900 na         1 ZYY       0.085000
      5 CAA        -37.3080    25.9430   -19.3100 c3         1 ZYY      -0.106600
      6 CAB        -39.3390    26.2030   -17.7720 c3         1 ZYY      -0.106600
      7 CAC        -37.9470    28.9300   -22.0080 c3         1 ZYY      -0.112100
      8 CAD        -41.3260    31.8060   -22.4930 c3         1 ZYY       0.188100
      9 CAE        -40.0860    33.3060   -25.2080 c3         1 ZYY      -0.369100
     10 OAH        -37.9450    31.9470   -24.4440 o          1 ZYY      -0.525000
     11 OAI        -40.0770    30.6740   -24.9670 o          1 ZYY      -0.525000
     12 CAL        -41.4480    37.7250   -20.5730 ca         1 ZYY      -0.158500
     13 CAM        -39.8270    38.4280   -18.8990 ca         1 ZYY      -0.158500
     14 CAN        -40.4540    36.9690   -21.2190 ca         1 ZYY      -0.059000
     15 CAO        -38.8310    37.6730   -19.5440 ca         1 ZYY      -0.059000
     16 CAP        -38.0680    36.1140   -21.4090 c3         1 ZYY       0.164300
     17 CAQ        -39.3340    28.3760   -19.9250 c6         1 ZYY       0.090000
     18 NAR        -38.9260    33.9420   -22.0580 nc         1 ZYY      -0.458300
     19 CAS        -37.5900    29.3290   -18.3420 c          1 ZYY       0.618600
     20 CAT        -41.1310    38.4520   -19.4160 ca         1 ZYY       0.182000
     21 CAU        -39.1410    36.9410   -20.7080 ca         1 ZYY      -0.136300
     22 CAV        -37.3570    31.8090   -18.8040 cc         1 ZYY       0.231100
     23 CAW        -37.8260    30.5620   -19.0970 cd         1 ZYY      -0.366600
     24 CAX        -39.0850    32.6330   -21.8780 cd         1 ZYY       0.558800
     25 CAY        -37.5480    34.1490   -19.9470 c          1 ZYY       0.600600
     26 CAZ        -37.7860    32.7000   -19.8040 cc         1 ZYY      -0.264600
     27 CBA        -38.5140    31.9920   -20.7200 cd         1 ZYY      -0.116900
     28 CBC        -39.0000    29.4540   -20.9960 c6         1 ZYY       0.077300
     29 SBH        -39.4080    31.8570   -24.4170 s6         1 ZYY       1.202100
     30 HAA        -37.0600    24.9810   -18.8460 hc         1 ZYY       0.042367
     31 HAAA       -37.9230    25.7470   -20.1960 hc         1 ZYY       0.042367
     32 HAAB       -36.3730    26.4130   -19.6380 hc         1 ZYY       0.042367
     33 HAB        -39.1100    25.2610   -17.2590 hc         1 ZYY       0.042367
     34 HABA       -39.8330    26.8680   -17.0540 hc         1 ZYY       0.042367
     35 HABB       -40.0430    25.9850   -18.5830 hc         1 ZYY       0.042367
     36 HAC        -38.3190    28.0510   -22.5470 hc         1 ZYY       0.060367
     37 HACA       -37.6970    29.6940   -22.7520 hc         1 ZYY       0.060367
     38 HACB       -37.0160    28.6440   -21.5030 hc         1 ZYY       0.060367
     39 HAD        -41.7010    30.8630   -22.9110 h1         1 ZYY       0.056367
     40 HADA       -41.5010    31.7880   -21.4090 h1         1 ZYY       0.056367
     41 HADB       -41.9080    32.6350   -22.9170 h1         1 ZYY       0.056367
     42 HAE        -39.7850    33.2740   -26.2590 h1         1 ZYY       0.106700
     43 HAEA       -41.1740    33.2640   -25.1050 h1         1 ZYY       0.106700
     44 HAEB       -39.6700    34.1830   -24.7030 h1         1 ZYY       0.106700
     45 HAL        -42.4610    37.7470   -20.9660 ha         1 ZYY       0.133000
     46 HAM        -39.5900    38.9920   -18.0010 ha         1 ZYY       0.133000
     47 HAN        -40.7040    36.4020   -22.1150 ha         1 ZYY       0.124000
     48 HAO        -37.8220    37.6550   -19.1360 ha         1 ZYY       0.124000
     49 HAP        -37.0720    36.4710   -21.1170 h1         1 ZYY       0.077200
     50 HAPA       -38.1480    36.2690   -22.4930 h1         1 ZYY       0.077200
     51 HAQ        -39.5310    27.4180   -20.4260 h1         1 ZYY       0.060200
     52 HAQA       -40.2660    28.6670   -19.4200 h1         1 ZYY       0.060200
     53 HBC        -39.9200    29.6840   -21.5450 h1         1 ZYY       0.084700
     54 CBB        -38.0440    26.8540   -18.3060 c3         1 ZYY       0.109700
     55 OAF        -36.8620    29.2950   -17.3600 o          1 ZYY      -0.592000
     56 OAG        -36.8990    34.8320   -19.1620 o          1 ZYY      -0.514000
     57 OAJ        -36.6050    32.1440   -17.7490 oh         1 ZYY      -0.485100
     58 FAK        -42.0870    39.1770   -18.7950 f          1 ZYY      -0.178000
     59 HOAJ       -36.4600    31.2980   -17.2680 ho         1 ZYY       0.503000
     60 HBB        -37.3780    26.9500   -17.4380 h1         1 ZYY       0.089700
@<TRIPOS>BOND
     1     1     8 1   
     2     1    24 1   
     3     1    29 1   
     4     2    17 1   
     5     2    19 1   
     6     2    54 1   
     7     3    16 1   
     8     3    18 1   
     9     3    25 1   
    10     4    23 1   
    11     4    27 1   
    12     4    28 1   
    13     5    30 1   
    14     5    31 1   
    15     5    32 1   
    16     5    54 1   
    17     6    33 1   
    18     6    34 1   
    19     6    35 1   
    20     6    54 1   
    21     7    28 1   
    22     7    36 1   
    23     7    37 1   
    24     7    38 1   
    25     8    39 1   
    26     8    40 1   
    27     8    41 1   
    28     9    29 1   
    29     9    42 1   
    30     9    43 1   
    31     9    44 1   
    32    10    29 2   
    33    11    29 2   
    34    12    14 ar  
    35    12    20 ar  
    36    12    45 1   
    37    13    15 ar  
    38    13    20 ar  
    39    13    46 1   
    40    14    21 ar  
    41    14    47 1   
    42    15    21 ar  
    43    15    48 1   
    44    16    21 1   
    45    16    49 1   
    46    16    50 1   
    47    17    28 1   
    48    17    51 1   
    49    17    52 1   
    50    18    24 2   
    51    19    23 1   
    52    19    55 2   
    53    20    58 1   
    54    22    23 2   
    55    22    26 1   
    56    22    57 1   
    57    24    27 1   
    58    25    26 1   
    59    25    56 2   
    60    26    27 2   
    61    28    53 1   
    62    54    60 1   
    63    57    59 1   
@<TRIPOS>SUBSTRUCTURE
     1 ZYY         1 TEMP              0 ****  ****    0 ROOT
