@<TRIPOS>MOLECULE
ZYY
   60    63     1     0     0
SMALL
abcg2


@<TRIPOS>ATOM
      1 ND         -39.8770    31.9490   -22.7770 nh         1 ZYY      -0.680500
      2 NE         -38.1930    28.2800   -18.9750 n          1 ZYY      -0.398800
      3 NF         -38.1660    34.6230   -21.1740 n          1 ZYY      -0.128800
      4 NG         -38.4600    30.6940   -20.3710 na         1 ZYY       0.085000
      5 CAA        -37.6900    25.9100   -19.4010 c3         1 ZYY      -0.106600
      6 CAB        -39.3140    26.5840   -17.5790 c3         1 ZYY      -0.106600
      7 CAC        -37.9060    28.9130   -21.9740 c3         1 ZYY      -0.112100
      8 CAD        -41.3200    32.0210   -22.5510 c3         1 ZYY       0.188100
      9 CAE        -39.7950    33.3390   -25.1630 c3         1 ZYY      -0.369100
     10 OAH        -37.8700    31.7850   -24.2520 o          1 ZYY      -0.525000
     11 OAI        -40.0380    30.7350   -24.9650 o          1 ZYY      -0.525000
     12 CAL        -41.5780    37.3170   -20.4330 ca         1 ZYY      -0.158500
     13 CAM        -39.9520    38.1950   -18.8740 ca         1 ZYY      -0.158500
     14 CAN        -40.5580    36.6800   -21.1230 ca         1 ZYY      -0.059000
     15 CAO        -38.9450    37.5450   -19.5760 ca         1 ZYY      -0.059000
     16 CAP        -38.1460    36.0590   -21.4490 c3         1 ZYY       0.164300
     17 CAQ        -39.3030    28.5150   -19.8880 c6         1 ZYY       0.090000
     18 NAR        -38.9130    33.9130   -22.0100 nc         1 ZYY      -0.458300
     19 CAS        -37.4850    29.3320   -18.5240 c          1 ZYY       0.618600
     20 CAT        -41.2530    38.0630   -19.3160 ca         1 ZYY       0.182000
     21 CAU        -39.2340    36.7830   -20.7030 ca         1 ZYY      -0.136300
     22 CAV        -37.2090    31.8300   -18.8840 cc         1 ZYY       0.231100
     23 CAW        -37.7080    30.5880   -19.2210 cd         1 ZYY      -0.366600
     24 CAX        -39.0590    32.6440   -21.8610 cd         1 ZYY       0.558800
     25 CAY        -37.5280    34.1400   -20.0350 c          1 ZYY       0.600600
     26 CAZ        -37.6880    32.7260   -19.8650 cc         1 ZYY      -0.264600
     27 CBA        -38.4460    31.9750   -20.7690 cd         1 ZYY      -0.116900
     28 CBC        -38.9420    29.4750   -21.0120 c6         1 ZYY       0.077300
     29 SBH        -39.3200    31.8360   -24.3460 s6         1 ZYY       1.202100
     30 HAA        -37.5280    24.9490   -18.9130 hc         1 ZYY       0.042367
     31 HAAA       -38.4770    25.7660   -20.1440 hc         1 ZYY       0.042367
     32 HAAB       -36.7730    26.1830   -19.9240 hc         1 ZYY       0.042367
     33 HAB        -39.1720    25.6190   -17.0920 hc         1 ZYY       0.042367
     34 HABA       -39.5310    27.3220   -16.8070 hc         1 ZYY       0.042367
     35 HABB       -40.1900    26.4980   -18.2260 hc         1 ZYY       0.042367
     36 HAC        -38.2910    28.0060   -22.4390 hc         1 ZYY       0.060367
     37 HACA       -37.6870    29.6260   -22.7660 hc         1 ZYY       0.060367
     38 HACB       -36.9750    28.6680   -21.4650 hc         1 ZYY       0.060367
     39 HAD        -41.8310    31.2870   -23.1680 h1         1 ZYY       0.056367
     40 HADA       -41.5160    31.7740   -21.5090 h1         1 ZYY       0.056367
     41 HADB       -41.7230    33.0150   -22.7530 h1         1 ZYY       0.056367
     42 HAE        -39.4640    33.2660   -26.1980 h1         1 ZYY       0.106700
     43 HAEA       -40.8780    33.4410   -25.1350 h1         1 ZYY       0.106700
     44 HAEB       -39.3210    34.1830   -24.6710 h1         1 ZYY       0.106700
     45 HAL        -42.6060    37.2390   -20.7620 ha         1 ZYY       0.133000
     46 HAM        -39.7250    38.7880   -17.9980 ha         1 ZYY       0.133000
     47 HAN        -40.8040    36.1000   -22.0040 ha         1 ZYY       0.124000
     48 HAO        -37.9220    37.6380   -19.2370 ha         1 ZYY       0.124000
     49 HAP        -37.1660    36.4510   -21.1880 h1         1 ZYY       0.077200
     50 HAPA       -38.2690    36.1680   -22.5250 h1         1 ZYY       0.077200
     51 HAQ        -39.5990    27.5680   -20.3350 h1         1 ZYY       0.060200
     52 HAQA       -40.1710    28.9000   -19.3440 h1         1 ZYY       0.060200
     53 HBC        -39.8580    29.7070   -21.5520 h1         1 ZYY       0.084700
     54 CBB        -38.0590    26.9580   -18.3590 c3         1 ZYY       0.109700
     55 OAF        -36.6740    29.2980   -17.5940 o          1 ZYY      -0.592000
     56 OAG        -36.9060    34.8880   -19.2970 o          1 ZYY      -0.514000
     57 OAJ        -36.4390    32.1410   -17.8460 oh         1 ZYY      -0.485100
     58 FAK        -42.2350    38.6840   -18.6430 f          1 ZYY      -0.178000
     59 HOAJ       -36.2260    31.3160   -17.3780 ho         1 ZYY       0.503000
     60 HBB        -37.2320    27.0370   -17.6550 h1         1 ZYY       0.089700
@<TRIPOS>BOND
     1     1     8 1   
     2     1    24 1   
     3     1    29 1   
     4     2    17 1   
     5     2    19 1   
     6     2    54 1   
     7     3    16 1   
     8     3    18 1   
     9     3    25 1   
    10     4    23 1   
    11     4    27 1   
    12     4    28 1   
    13     5    30 1   
    14     5    31 1   
    15     5    32 1   
    16     5    54 1   
    17     6    33 1   
    18     6    34 1   
    19     6    35 1   
    20     6    54 1   
    21     7    28 1   
    22     7    36 1   
    23     7    37 1   
    24     7    38 1   
    25     8    39 1   
    26     8    40 1   
    27     8    41 1   
    28     9    29 1   
    29     9    42 1   
    30     9    43 1   
    31     9    44 1   
    32    10    29 2   
    33    11    29 2   
    34    12    14 ar  
    35    12    20 ar  
    36    12    45 1   
    37    13    15 ar  
    38    13    20 ar  
    39    13    46 1   
    40    14    21 ar  
    41    14    47 1   
    42    15    21 ar  
    43    15    48 1   
    44    16    21 1   
    45    16    49 1   
    46    16    50 1   
    47    17    28 1   
    48    17    51 1   
    49    17    52 1   
    50    18    24 2   
    51    19    23 1   
    52    19    55 2   
    53    20    58 1   
    54    22    23 2   
    55    22    26 1   
    56    22    57 1   
    57    24    27 1   
    58    25    26 1   
    59    25    56 2   
    60    26    27 2   
    61    28    53 1   
    62    54    60 1   
    63    57    59 1   
@<TRIPOS>SUBSTRUCTURE
     1 ZYY         1 TEMP              0 ****  ****    0 ROOT
