@<TRIPOS>MOLECULE
ZYZ
   47    47     1     0     0
SMALL
abcg2


@<TRIPOS>ATOM
      1 SE          -5.2230     0.2270     0.0320 s4         1 ZYZ       0.211500
      2 C1          -3.7190    -0.7900    -0.7190 c3         1 ZYZ       0.163200
      3 N1           2.5600     0.0140     0.3780 ns         1 ZYZ      -0.480900
      4 C2          -2.4490    -0.0930    -0.3670 ca         1 ZYZ      -0.091300
      5 C3          -1.8290    -0.3160     0.8600 ca         1 ZYZ      -0.090000
      6 C4          -0.6650     0.3590     1.1960 ca         1 ZYZ      -0.101000
      7 C5          -0.0960     1.2820     0.3230 ca         1 ZYZ      -0.073300
      8 O5           3.8130    -0.5670    -1.4140 o          1 ZYZ      -0.546000
      9 C6          -0.7230     1.5100    -0.8990 ca         1 ZYZ      -0.101000
     10 O6           3.5260    -1.9660     0.3480 os         1 ZYZ      -0.471100
     11 C7          -1.8830     0.8340    -1.2410 ca         1 ZYZ      -0.090000
     12 C8           1.1790     1.9990     0.6650 c3         1 ZYZ      -0.035100
     13 C9           2.3890     1.3720    -0.0460 c3         1 ZYZ       0.071700
     14 C10          3.6510     2.1870     0.2160 c          1 ZYZ       0.565100
     15 C12          4.6910     4.2570    -0.2090 c3         1 ZYZ       0.151900
     16 C13          4.2820    -3.0860    -0.1890 c3         1 ZYZ       0.225000
     17 C14          5.7380    -2.7040    -0.4220 c3         1 ZYZ      -0.109433
     18 C15          4.1950    -4.1260     0.9210 c3         1 ZYZ      -0.109433
     19 C16          3.6290    -3.6280    -1.4540 c3         1 ZYZ      -0.109433
     20 H1          -3.7840    -1.7940    -0.2930 h1         1 ZYZ       0.089200
     21 H1A         -3.8760    -0.8480    -1.7980 h1         1 ZYZ       0.089200
     22 HN1          2.3520    -0.2130     1.3380 hn         1 ZYZ       0.328500
     23 H3          -2.2530    -1.0280     1.5560 ha         1 ZYZ       0.121000
     24 H4          -0.2000     0.1680     2.1560 ha         1 ZYZ       0.114500
     25 H6          -0.3010     2.2270    -1.5950 ha         1 ZYZ       0.114500
     26 H7          -2.3530     1.0280    -2.1980 ha         1 ZYZ       0.121000
     27 H8           1.1040     3.0460     0.3700 hc         1 ZYZ       0.064700
     28 H8A          1.3430     1.9870     1.7450 hc         1 ZYZ       0.064700
     29 H9           2.2000     1.3920    -1.1220 h1         1 ZYZ       0.105700
     30 H12          4.8370     4.5050     0.8420 h1         1 ZYZ       0.049700
     31 H12A         5.6110     3.8350    -0.6120 h1         1 ZYZ       0.049700
     32 H12B         4.4350     5.1570    -0.7590 h1         1 ZYZ       0.049700
     33 H14          6.1820    -2.2780     0.4790 hc         1 ZYZ       0.050033
     34 H14A         6.3040    -3.6010    -0.6760 hc         1 ZYZ       0.050033
     35 H14B         5.8590    -1.9940    -1.2380 hc         1 ZYZ       0.050033
     36 H15          3.1600    -4.3940     1.1390 hc         1 ZYZ       0.050033
     37 H15A         4.7170    -5.0320     0.6150 hc         1 ZYZ       0.050033
     38 H15B         4.6590    -3.7680     1.8410 hc         1 ZYZ       0.050033
     39 H16          3.6910    -2.9300    -2.2870 hc         1 ZYZ       0.050033
     40 H16A         4.1370    -4.5460    -1.7480 hc         1 ZYZ       0.050033
     41 H16B         2.5790    -3.8720    -1.2820 hc         1 ZYZ       0.050033
     42 O51         -6.3780    -1.0520    -0.4170 oh         1 ZYZ      -0.554800
     43 O61         -5.0060     0.0860     1.6290 o          1 ZYZ      -0.438000
     44 H23         -7.2670    -0.6760    -0.5020 ho         1 ZYZ       0.465000
     45 C11          3.3560    -0.8310    -0.3220 c          1 ZYZ       0.654100
     46 O3           4.5750     1.8130     0.8890 o          1 ZYZ      -0.476000
     47 O4           3.5900     3.3630    -0.3850 os         1 ZYZ      -0.443100
@<TRIPOS>BOND
     1     1     2 1   
     2     1    42 1   
     3     1    43 2   
     4     2     4 1   
     5     2    20 1   
     6     2    21 1   
     7     3    13 1   
     8     3    22 1   
     9     3    45 1   
    10     4     5 ar  
    11     4    11 ar  
    12     5     6 ar  
    13     5    23 1   
    14     6     7 ar  
    15     6    24 1   
    16     7     9 ar  
    17     7    12 1   
    18     8    45 2   
    19     9    11 ar  
    20     9    25 1   
    21    10    16 1   
    22    10    45 1   
    23    11    26 1   
    24    12    13 1   
    25    12    27 1   
    26    12    28 1   
    27    13    14 1   
    28    13    29 1   
    29    14    46 2   
    30    14    47 1   
    31    15    30 1   
    32    15    31 1   
    33    15    32 1   
    34    15    47 1   
    35    16    17 1   
    36    16    18 1   
    37    16    19 1   
    38    17    33 1   
    39    17    34 1   
    40    17    35 1   
    41    18    36 1   
    42    18    37 1   
    43    18    38 1   
    44    19    39 1   
    45    19    40 1   
    46    19    41 1   
    47    42    44 1   
@<TRIPOS>SUBSTRUCTURE
     1 ZYZ         1 TEMP              0 ****  ****    0 ROOT
