@<TRIPOS>MOLECULE
ZYZ
   47    47     1     0     0
SMALL
No Charge or Current Charge


@<TRIPOS>ATOM
      1 SE          -4.3030    -1.0000    -0.6180 s4         1 ZYZ       0.211500
      2 C1          -2.5850    -1.5910    -1.0180 c3         1 ZYZ       0.163200
      3 N1           3.2690     0.5340     0.4940 ns         1 ZYZ      -0.480900
      4 C2          -1.5400    -0.5710    -0.5780 ca         1 ZYZ      -0.091300
      5 C3          -0.9870    -0.6310     0.7150 ca         1 ZYZ      -0.090000
      6 C4          -0.0170     0.3030     1.1160 ca         1 ZYZ      -0.101000
      7 C5           0.4120     1.3090     0.2300 ca         1 ZYZ      -0.073300
      8 O5           2.6020    -0.5180    -1.4280 o          1 ZYZ      -0.546000
      9 C6          -0.1470     1.3750    -1.0600 ca         1 ZYZ      -0.101000
     10 O6           3.3460    -1.6760     0.4390 os         1 ZYZ      -0.471100
     11 C7          -1.1170     0.4400    -1.4630 ca         1 ZYZ      -0.090000
     12 C8           1.4910     2.3010     0.6520 c3         1 ZYZ      -0.035100
     13 C9           2.9050     1.9240     0.1370 c3         1 ZYZ       0.071700
     14 C10          3.9770     2.9240     0.6420 c          1 ZYZ       0.565100
     15 C12          4.8270     5.1630     0.3510 c3         1 ZYZ       0.151900
     16 C13          3.1070    -3.0140    -0.0540 c3         1 ZYZ       0.225000
     17 C14          3.9570    -3.2650    -1.3270 c3         1 ZYZ      -0.109433
     18 C15          3.5880    -3.9340     1.0890 c3         1 ZYZ      -0.109433
     19 C16          1.5860    -3.2140    -0.2890 c3         1 ZYZ      -0.109433
     20 H1          -2.4260    -2.5480    -0.5070 h1         1 ZYZ       0.089200
     21 H1A         -2.5200    -1.7550    -2.1000 h1         1 ZYZ       0.089200
     22 HN1          3.6520     0.3460     1.4120 hn         1 ZYZ       0.328500
     23 H3          -1.3070    -1.4040     1.4110 ha         1 ZYZ       0.121000
     24 H4           0.4090     0.2360     2.1150 ha         1 ZYZ       0.114500
     25 H6           0.1790     2.1440    -1.7570 ha         1 ZYZ       0.114500
     26 H7          -1.5350     0.5020    -2.4660 ha         1 ZYZ       0.121000
     27 H8           1.2350     3.3050     0.2900 hc         1 ZYZ       0.064700
     28 H8A          1.5220     2.3760     1.7460 hc         1 ZYZ       0.064700
     29 H9           2.9040     2.0120    -0.9570 h1         1 ZYZ       0.105700
     30 H12          4.7440     5.4220     1.4150 h1         1 ZYZ       0.049700
     31 H12A         5.8570     4.8380     0.1520 h1         1 ZYZ       0.049700
     32 H12B         4.6380     6.0700    -0.2350 h1         1 ZYZ       0.049700
     33 H14          4.9920    -2.9350    -1.1750 hc         1 ZYZ       0.050033
     34 H14A         3.9750    -4.3340    -1.5690 hc         1 ZYZ       0.050033
     35 H14B         3.5520    -2.7440    -2.2010 hc         1 ZYZ       0.050033
     36 H15          3.0280    -3.7350     2.0110 hc         1 ZYZ       0.050033
     37 H15A         3.4470    -4.9890     0.8270 hc         1 ZYZ       0.050033
     38 H15B         4.6530    -3.7740     1.2960 hc         1 ZYZ       0.050033
     39 H16          1.2270    -2.6530    -1.1580 hc         1 ZYZ       0.050033
     40 H16A         1.3640    -4.2720    -0.4700 hc         1 ZYZ       0.050033
     41 H16B         1.0130    -2.8940     0.5890 hc         1 ZYZ       0.050033
     42 O51         -5.0000    -2.4210    -1.2280 oh         1 ZYZ      -0.554800
     43 O61         -4.4460    -0.9860     0.8850 o          1 ZYZ      -0.438000
     44 H23         -4.9330    -2.3750    -2.2060 ho         1 ZYZ       0.465000
     45 C11          3.0290    -0.5600    -0.2860 c          1 ZYZ       0.654100
     46 O3           4.8290     2.6560     1.4820 o          1 ZYZ      -0.476000
     47 O4           3.8850     4.1320    -0.0020 os         1 ZYZ      -0.443100
@<TRIPOS>BOND
     1     1     2 1   
     2     1    42 1   
     3     1    43 2   
     4     2     4 1   
     5     2    20 1   
     6     2    21 1   
     7     3    13 1   
     8     3    22 1   
     9     3    45 1   
    10     4     5 ar  
    11     4    11 ar  
    12     5     6 ar  
    13     5    23 1   
    14     6     7 ar  
    15     6    24 1   
    16     7     9 ar  
    17     7    12 1   
    18     8    45 2   
    19     9    11 ar  
    20     9    25 1   
    21    10    16 1   
    22    10    45 1   
    23    11    26 1   
    24    12    13 1   
    25    12    27 1   
    26    12    28 1   
    27    13    14 1   
    28    13    29 1   
    29    14    46 2   
    30    14    47 1   
    31    15    30 1   
    32    15    31 1   
    33    15    32 1   
    34    15    47 1   
    35    16    17 1   
    36    16    18 1   
    37    16    19 1   
    38    17    33 1   
    39    17    34 1   
    40    17    35 1   
    41    18    36 1   
    42    18    37 1   
    43    18    38 1   
    44    19    39 1   
    45    19    40 1   
    46    19    41 1   
    47    42    44 1   
@<TRIPOS>SUBSTRUCTURE
     1 ZYZ         1 TEMP              0 ****  ****    0 ROOT
