@<TRIPOS>MOLECULE
ZZ0
   25    26     1     0     0
SMALL
No Charge or Current Charge


@<TRIPOS>ATOM
      1 C7          -1.5680    -1.5150     0.3780 ca         1 ZZ0      -0.174500
      2 C9          -2.9740    -1.5240     0.4420 ca         1 ZZ0      -0.076000
      3 C5          -3.6980    -0.3720     0.0950 ca         1 ZZ0       0.051000
      4 Cl1         -5.4540    -0.3810     0.1710 cl         1 ZZ0      -0.255000
      5 C10         -3.0190     0.7840    -0.3210 ca         1 ZZ0      -0.076000
      6 C8          -1.6130     0.7890    -0.3820 ca         1 ZZ0      -0.174500
      7 C4          -0.8770    -0.3570    -0.0190 ca         1 ZZ0       0.364000
      8 N1           0.5130    -0.4110    -0.0870 nu         1 ZZ0      -0.954900
      9 C1           1.5530     0.4800     0.0200 ca         1 ZZ0       0.622900
     10 N2           1.1910     1.6950     0.4520 nb         1 ZZ0      -0.780000
     11 C11          2.1520     2.6260     0.6030 ca         1 ZZ0       0.356900
     12 C12          3.5040     2.3710     0.3360 ca         1 ZZ0      -0.242000
     13 C6           3.8850     1.0960    -0.1000 ca         1 ZZ0      -0.031000
     14 C2           2.8840     0.1140    -0.2560 ca         1 ZZ0      -0.238600
     15 C3           3.2470    -1.2700    -0.7120 c          1 ZZ0       0.727600
     16 O2           2.4990    -2.1990    -0.4400 o          1 ZZ0      -0.707000
     17 O1           4.2980    -1.4170    -1.3180 o          1 ZZ0      -0.707000
     18 H7          -1.0160    -2.4110     0.6480 ha         1 ZZ0       0.139000
     19 H9          -3.5000    -2.4220     0.7580 ha         1 ZZ0       0.109500
     20 H10         -3.5790     1.6730    -0.6010 ha         1 ZZ0       0.109500
     21 H8          -1.1020     1.6810    -0.7270 ha         1 ZZ0       0.139000
     22 H1           0.9000    -1.3590    -0.1690 hn         1 ZZ0       0.573000
     23 H11          1.8280     3.6070     0.9490 h4         1 ZZ0      -0.011900
     24 H12          4.2430     3.1550     0.4730 ha         1 ZZ0       0.101000
     25 H6           4.9320     0.8750    -0.3030 ha         1 ZZ0       0.133000
@<TRIPOS>BOND
     1     1     2 ar  
     2     1     7 ar  
     3     1    18 1   
     4     2     3 ar  
     5     2    19 1   
     6     3     4 1   
     7     3     5 ar  
     8     5     6 ar  
     9     5    20 1   
    10     6     7 ar  
    11     6    21 1   
    12     7     8 1   
    13     8     9 1   
    14     8    22 1   
    15     9    10 ar  
    16     9    14 ar  
    17    10    11 ar  
    18    11    12 ar  
    19    11    23 1   
    20    12    13 ar  
    21    12    24 1   
    22    13    14 ar  
    23    13    25 1   
    24    14    15 1   
    25    15    16 1   
    26    15    17 1   
@<TRIPOS>SUBSTRUCTURE
     1 ZZ0         1 TEMP              0 ****  ****    0 ROOT
