@<TRIPOS>MOLECULE
ZZ0
   25    26     1     0     0
SMALL
bcc


@<TRIPOS>ATOM
      1 C7          -1.5710    -1.5430    -0.0420 ca         1 ZZ0      -0.192500
      2 C9          -2.9500    -1.5750     0.0090 ca         1 ZZ0      -0.094000
      3 C5          -3.6580    -0.3860     0.1150 ca         1 ZZ0      -0.040600
      4 CL1         -5.3940    -0.4170     0.1790 cl         1 ZZ0      -0.163400
      5 C10         -2.9830     0.8200     0.1700 ca         1 ZZ0      -0.094000
      6 C8          -1.5970     0.8540     0.1200 ca         1 ZZ0      -0.192500
      7 C4          -0.8600    -0.3320     0.0120 ca         1 ZZ0       0.225600
      8 N1           0.5130    -0.4290    -0.0490 nu         1 ZZ0      -0.761300
      9 C1           1.4940     0.5180    -0.0200 ca         1 ZZ0       0.688200
     10 N2           1.1650     1.8000     0.1090 nb         1 ZZ0      -0.780000
     11 C11          2.1280     2.7140     0.1440 ca         1 ZZ0       0.422200
     12 C12          3.4710     2.4130     0.0530 ca         1 ZZ0      -0.325300
     13 C6           3.8150     1.0720    -0.0860 ca         1 ZZ0      -0.049000
     14 C2           2.8470     0.0870    -0.1290 ca         1 ZZ0      -0.303900
     15 C3           3.2720    -1.3650    -0.2860 c          1 ZZ0       0.938200
     16 O2           2.3610    -2.2350    -0.3150 o          1 ZZ0      -0.812300
     17 O1           4.4860    -1.5910    -0.3750 o          1 ZZ0      -0.812300
     18 H7          -1.0280    -2.4770    -0.1280 ha         1 ZZ0       0.157000
     19 H9          -3.4670    -2.5240    -0.0360 ha         1 ZZ0       0.127500
     20 H10         -3.5310     1.7490     0.2550 ha         1 ZZ0       0.127500
     21 H8          -1.0890     1.8030     0.1670 ha         1 ZZ0       0.157000
     22 H1           0.9300    -1.3670    -0.1500 hn         1 ZZ0       0.517800
     23 H11          1.8000     3.7420     0.2510 h4         1 ZZ0      -0.011900
     24 H12          4.2200     3.1920     0.0870 ha         1 ZZ0       0.119000
     25 H6           4.8550     0.7840    -0.1640 ha         1 ZZ0       0.151000
@<TRIPOS>BOND
     1     1     2 ar  
     2     1     7 ar  
     3     1    18 1   
     4     2     3 ar  
     5     2    19 1   
     6     3     4 1   
     7     3     5 ar  
     8     5     6 ar  
     9     5    20 1   
    10     6     7 ar  
    11     6    21 1   
    12     7     8 1   
    13     8     9 1   
    14     8    22 1   
    15     9    10 ar  
    16     9    14 ar  
    17    10    11 ar  
    18    11    12 ar  
    19    11    23 1   
    20    12    13 ar  
    21    12    24 1   
    22    13    14 ar  
    23    13    25 1   
    24    14    15 1   
    25    15    16 1   
    26    15    17 1   
@<TRIPOS>SUBSTRUCTURE
     1 ZZ0         1 TEMP              0 ****  ****    0 ROOT
