@<TRIPOS>MOLECULE
ZZ1
   20    21     1     0     0
SMALL
bcc


@<TRIPOS>ATOM
      1 O8           3.0380    -1.3190    -0.0190 o          1 ZZ1      -0.561500
      2 C8           2.0060    -0.6930    -0.0120 c          1 ZZ1       0.748800
      3 O1           0.8490    -1.4020     0.0020 os         1 ZZ1      -0.335200
      4 C11         -0.3720    -0.8170     0.0050 ca         1 ZZ1       0.171100
      5 C10         -1.4760    -1.6600     0.0160 ca         1 ZZ1      -0.149000
      6 C1          -2.7420    -1.1040     0.0180 ca         1 ZZ1      -0.082000
      7 C2          -2.9100     0.2810     0.0110 ca         1 ZZ1      -0.157000
      8 C3          -1.8040     1.1070     0.0010 ca         1 ZZ1      -0.073000
      9 C4          -0.5110     0.5710    -0.0020 ca         1 ZZ1      -0.151800
     10 C5           0.6940     1.3750    -0.0120 cc         1 ZZ1       0.040600
     11 C6           0.5980     2.8630    -0.0170 c3         1 ZZ1      -0.065900
     12 C7           1.8880     0.7470    -0.0170 cd         1 ZZ1      -0.282200
     13 H10         -1.3380    -2.7330     0.0210 ha         1 ZZ1       0.157000
     14 H1          -3.6060    -1.7540     0.0250 ha         1 ZZ1       0.139000
     15 H2          -3.9040     0.7070     0.0120 ha         1 ZZ1       0.139000
     16 H3          -1.9360     2.1800    -0.0040 ha         1 ZZ1       0.136000
     17 H6C1         1.5840     3.3200    -0.0200 hc         1 ZZ1       0.054700
     18 H6C2         0.0530     3.2140    -0.8950 hc         1 ZZ1       0.054700
     19 H6C3         0.0560     3.2200     0.8610 hc         1 ZZ1       0.054700
     20 H7           2.8140     1.3060    -0.0240 ha         1 ZZ1       0.162000
@<TRIPOS>BOND
     1     1     2 2   
     2     2     3 1   
     3     2    12 1   
     4     3     4 1   
     5     4     5 ar  
     6     4     9 ar  
     7     5     6 ar  
     8     5    13 1   
     9     6     7 ar  
    10     6    14 1   
    11     7     8 ar  
    12     7    15 1   
    13     8     9 ar  
    14     8    16 1   
    15     9    10 1   
    16    10    11 1   
    17    10    12 2   
    18    11    17 1   
    19    11    18 1   
    20    11    19 1   
    21    12    20 1   
@<TRIPOS>SUBSTRUCTURE
     1 ZZ1         1 TEMP              0 ****  ****    0 ROOT
