@<TRIPOS>MOLECULE
ZZ1
   20    21     1     0     0
SMALL
No Charge or Current Charge


@<TRIPOS>ATOM
      1 O8           3.1210    -1.2740    -0.0130 o          1 ZZ1      -0.486000
      2 C8           2.0290    -0.7260    -0.0100 c          1 ZZ1       0.673300
      3 O1           0.8680    -1.4400    -0.0000 os         1 ZZ1      -0.335200
      4 C11         -0.3700    -0.8580     0.0040 ca         1 ZZ1       0.171100
      5 C10         -1.5000    -1.6890     0.0130 ca         1 ZZ1      -0.131000
      6 C1          -2.7870    -1.1300     0.0180 ca         1 ZZ1      -0.064000
      7 C2          -2.9360     0.2650     0.0120 ca         1 ZZ1      -0.139000
      8 C3          -1.8050     1.1000     0.0020 ca         1 ZZ1      -0.055000
      9 C4          -0.5020     0.5470    -0.0020 ca         1 ZZ1      -0.151800
     10 C5           0.6840     1.4130    -0.0120 cc         1 ZZ1       0.040600
     11 C6           0.6110     2.9190    -0.0190 c3         1 ZZ1      -0.065900
     12 C7           1.8880     0.7390    -0.0160 cd         1 ZZ1      -0.332200
     13 H10         -1.3760    -2.7690     0.0180 ha         1 ZZ1       0.139000
     14 H1          -3.6640    -1.7740     0.0250 ha         1 ZZ1       0.121000
     15 H2          -3.9320     0.7040     0.0160 ha         1 ZZ1       0.121000
     16 H3          -1.9540     2.1770    -0.0020 ha         1 ZZ1       0.118000
     17 H6C1         1.6100     3.3710    -0.0260 hc         1 ZZ1       0.054700
     18 H6C2         0.0780     3.2810    -0.9060 hc         1 ZZ1       0.054700
     19 H6C3         0.0870     3.2890     0.8710 hc         1 ZZ1       0.054700
     20 H7           2.8340     1.2650    -0.0230 ha         1 ZZ1       0.212000
@<TRIPOS>BOND
     1     1     2 2   
     2     2     3 1   
     3     2    12 1   
     4     3     4 1   
     5     4     5 ar  
     6     4     9 ar  
     7     5     6 ar  
     8     5    13 1   
     9     6     7 ar  
    10     6    14 1   
    11     7     8 ar  
    12     7    15 1   
    13     8     9 ar  
    14     8    16 1   
    15     9    10 1   
    16    10    11 1   
    17    10    12 2   
    18    11    17 1   
    19    11    18 1   
    20    11    19 1   
    21    12    20 1   
@<TRIPOS>SUBSTRUCTURE
     1 ZZ1         1 TEMP              0 ****  ****    0 ROOT
