@<TRIPOS>MOLECULE
ZZ2
   26    26     1     0     0
SMALL
bcc


@<TRIPOS>ATOM
      1 N2          -2.6870     2.3480    -0.2020 nv         1 ZZ2      -0.954500
      2 C3          -2.1500     1.1160    -0.1020 ca         1 ZZ2       0.942900
      3 N3          -0.8210     1.0550     0.0630 nb         1 ZZ2      -0.869000
      4 C4          -0.3040    -0.1460     0.1930 ca         1 ZZ2       0.724600
      5 C5          -1.0760    -1.3120     0.1660 ca         1 ZZ2      -0.449600
      6 C2          -2.4340    -1.1330    -0.0080 ca         1 ZZ2       0.514600
      7 C1          -3.3740    -2.2950    -0.0480 c3         1 ZZ2      -0.149400
      8 N1          -2.9790     0.0780    -0.1460 nb         1 ZZ2      -0.810000
      9 O1           1.0040    -0.2830     0.3560 os         1 ZZ2      -0.426100
     10 C6           1.8210     0.8850     0.4120 c3         1 ZZ2       0.149400
     11 C7           3.2510     0.4420     0.5720 c3         1 ZZ2       0.129400
     12 O2           3.6650    -0.2390    -0.5820 os         1 ZZ2      -0.396600
     13 C8           4.9990    -0.6720    -0.5050 c3         1 ZZ2       0.121700
     14 H21N        -2.0810     3.1330    -0.3670 hn         1 ZZ2       0.438800
     15 H22N        -3.6420     2.4340    -0.5020 hn         1 ZZ2       0.438800
     16 H5          -0.6320    -2.2910     0.2800 ha         1 ZZ2       0.163000
     17 H11C        -4.0820    -2.2340     0.7790 hc         1 ZZ2       0.054367
     18 H12C        -3.9550    -2.2830    -0.9710 hc         1 ZZ2       0.054367
     19 H13C        -2.8490    -3.2460     0.0190 hc         1 ZZ2       0.054367
     20 H61C         1.7000     1.4860    -0.4920 h1         1 ZZ2       0.058200
     21 H62C         1.5420     1.5080     1.2660 h1         1 ZZ2       0.058200
     22 H71C         3.8590     1.3410     0.7470 h1         1 ZZ2       0.032700
     23 H72C         3.3530    -0.1880     1.4670 h1         1 ZZ2       0.032700
     24 H81C         5.6960     0.1620    -0.3660 h1         1 ZZ2       0.028700
     25 H82C         5.1560    -1.3820     0.3160 h1         1 ZZ2       0.028700
     26 H83C         5.2430    -1.1730    -1.4410 h1         1 ZZ2       0.028700
@<TRIPOS>BOND
     1     1     2 1   
     2     1    14 1   
     3     1    15 1   
     4     2     3 ar  
     5     2     8 ar  
     6     3     4 ar  
     7     4     5 ar  
     8     4     9 1   
     9     5     6 ar  
    10     5    16 1   
    11     6     7 1   
    12     6     8 ar  
    13     7    17 1   
    14     7    18 1   
    15     7    19 1   
    16     9    10 1   
    17    10    11 1   
    18    10    20 1   
    19    10    21 1   
    20    11    12 1   
    21    11    22 1   
    22    11    23 1   
    23    12    13 1   
    24    13    24 1   
    25    13    25 1   
    26    13    26 1   
@<TRIPOS>SUBSTRUCTURE
     1 ZZ2         1 TEMP              0 ****  ****    0 ROOT
