@<TRIPOS>MOLECULE
ZZ2
   26    26     1     0     0
SMALL
No Charge or Current Charge


@<TRIPOS>ATOM
      1 N2          -2.8000     2.3550    -0.2360 nv         1 ZZ2      -1.064900
      2 C3          -2.2430     1.1340    -0.0940 ca         1 ZZ2       0.416900
      3 N3          -0.9180     1.1160     0.0660 nb         1 ZZ2      -0.343000
      4 C4          -0.3540    -0.1010     0.2060 ca         1 ZZ2       0.396300
      5 C5          -1.1340    -1.2650     0.1800 ca         1 ZZ2      -0.301000
      6 C2          -2.5190    -1.1250     0.0020 ca         1 ZZ2       0.186300
      7 C1          -3.4450    -2.3250    -0.0360 c3         1 ZZ2      -0.149400
      8 N1          -3.0810     0.0910    -0.1360 nb         1 ZZ2      -0.284000
      9 O1           1.0030    -0.2420     0.3810 os         1 ZZ2      -0.449300
     10 C6           1.8730     0.9120     0.4130 c3         1 ZZ2       0.172600
     11 C7           3.3310     0.4370     0.6180 c3         1 ZZ2       0.152600
     12 O2           3.7940    -0.2020    -0.5890 os         1 ZZ2      -0.443000
     13 C8           5.1420    -0.6960    -0.5230 c3         1 ZZ2       0.144900
     14 H21N        -2.1860     3.1390    -0.4420 hn         1 ZZ2       0.494000
     15 H22N        -3.7520     2.4150    -0.5900 hn         1 ZZ2       0.494000
     16 H5          -0.6740    -2.2410     0.2960 ha         1 ZZ2       0.145000
     17 H11C        -3.9580    -2.4520     0.9250 hc         1 ZZ2       0.054367
     18 H12C        -4.2100    -2.2130    -0.8140 hc         1 ZZ2       0.054367
     19 H13C        -2.8940    -3.2490    -0.2460 hc         1 ZZ2       0.054367
     20 H61C         1.8060     1.4860    -0.5200 h1         1 ZZ2       0.058200
     21 H62C         1.5990     1.5760     1.2440 h1         1 ZZ2       0.058200
     22 H71C         3.9570     1.3080     0.8510 h1         1 ZZ2       0.032700
     23 H72C         3.3750    -0.2530     1.4720 h1         1 ZZ2       0.032700
     24 H81C         5.8470     0.1210    -0.3240 h1         1 ZZ2       0.028700
     25 H82C         5.2430    -1.4460     0.2730 h1         1 ZZ2       0.028700
     26 H83C         5.4220    -1.1670    -1.4740 h1         1 ZZ2       0.028700
@<TRIPOS>BOND
     1     1     2 1   
     2     1    14 1   
     3     1    15 1   
     4     2     3 ar  
     5     2     8 ar  
     6     3     4 ar  
     7     4     5 ar  
     8     4     9 1   
     9     5     6 ar  
    10     5    16 1   
    11     6     7 1   
    12     6     8 ar  
    13     7    17 1   
    14     7    18 1   
    15     7    19 1   
    16     9    10 1   
    17    10    11 1   
    18    10    20 1   
    19    10    21 1   
    20    11    12 1   
    21    11    22 1   
    22    11    23 1   
    23    12    13 1   
    24    13    24 1   
    25    13    25 1   
    26    13    26 1   
@<TRIPOS>SUBSTRUCTURE
     1 ZZ2         1 TEMP              0 ****  ****    0 ROOT
