@<TRIPOS>MOLECULE
ZZ3
   18    18     1     0     0
SMALL
bcc


@<TRIPOS>ATOM
      1 N5          -1.4110     2.5770    -0.0530 nv         1 ZZ3      -0.956500
      2 C2          -1.0580     1.2930    -0.0350 ca         1 ZZ3       0.945900
      3 N4           0.2510     1.0100    -0.0390 nb         1 ZZ3      -0.833000
      4 N1          -2.0340     0.3790    -0.0130 nb         1 ZZ3      -0.823000
      5 C3          -1.6270    -0.8790     0.0120 ca         1 ZZ3       0.734300
      6 C8          -2.6690    -1.9440     0.0090 c3         1 ZZ3      -0.141400
      7 N3          -0.3580    -1.2710     0.0170 nb         1 ZZ3      -0.772000
      8 C4           0.5240    -0.2760    -0.0120 ca         1 ZZ3       0.812300
      9 S1           2.1840    -0.8090    -0.0060 ss         1 ZZ3      -0.239400
     10 C6           3.0810     0.7540     0.0190 c3         1 ZZ3      -0.031000
     11 H51N        -0.7170     3.3010    -0.0700 hn         1 ZZ3       0.451800
     12 H52N        -2.3780     2.8410    -0.0510 hn         1 ZZ3       0.451800
     13 H61C         2.8650     1.3510    -0.8630 h1         1 ZZ3       0.070033
     14 H62C         2.8510     1.3290     0.9120 h1         1 ZZ3       0.070033
     15 H63C         4.1380     0.4960     0.0250 h1         1 ZZ3       0.070033
     16 H81C        -2.9040    -2.2180    -1.0220 hc         1 ZZ3       0.063033
     17 H82C        -2.3150    -2.8400     0.5130 hc         1 ZZ3       0.063033
     18 H83C        -3.5880    -1.5990     0.4750 hc         1 ZZ3       0.063033
@<TRIPOS>BOND
     1     1     2 1   
     2     1    11 1   
     3     1    12 1   
     4     2     3 ar  
     5     2     4 ar  
     6     3     8 ar  
     7     4     5 ar  
     8     5     6 1   
     9     5     7 ar  
    10     6    16 1   
    11     6    17 1   
    12     6    18 1   
    13     7     8 ar  
    14     8     9 1   
    15     9    10 1   
    16    10    13 1   
    17    10    14 1   
    18    10    15 1   
@<TRIPOS>SUBSTRUCTURE
     1 ZZ3         1 TEMP              0 ****  ****    0 ROOT
