@<TRIPOS>MOLECULE
ZZ3
   18    18     1     0     0
SMALL
No Charge or Current Charge


@<TRIPOS>ATOM
      1 N5          -1.4190     2.5830    -0.1650 nv         1 ZZ3      -1.066900
      2 C2          -1.0730     1.2790    -0.0990 ca         1 ZZ3       0.419900
      3 N4           0.2360     1.0060    -0.0510 nb         1 ZZ3      -0.307000
      4 N1          -2.0730     0.3900    -0.0850 nb         1 ZZ3      -0.297000
      5 C3          -1.6700    -0.8950    -0.0140 ca         1 ZZ3       0.208300
      6 C8          -2.7440    -1.9670    -0.0020 c3         1 ZZ3      -0.141400
      7 N3          -0.3830    -1.2990     0.0350 nb         1 ZZ3      -0.246000
      8 C4           0.5350    -0.3090     0.0150 ca         1 ZZ3       0.286300
      9 S1           2.2550    -0.8000     0.0820 ss         1 ZZ3      -0.287300
     10 C6           3.1920     0.7950     0.0120 c3         1 ZZ3       0.016900
     11 H51N        -0.7110     3.2770     0.0620 hn         1 ZZ3       0.507000
     12 H52N        -2.3830     2.8370     0.0370 hn         1 ZZ3       0.507000
     13 H61C         2.9560     1.3250    -0.9200 h1         1 ZZ3       0.070033
     14 H62C         2.9190     1.4250     0.8670 h1         1 ZZ3       0.070033
     15 H63C         4.2690     0.5910     0.0450 h1         1 ZZ3       0.070033
     16 H81C        -3.0100    -2.2620    -1.0240 hc         1 ZZ3       0.063033
     17 H82C        -2.4080    -2.8660     0.5290 hc         1 ZZ3       0.063033
     18 H83C        -3.6560    -1.6140     0.4930 hc         1 ZZ3       0.063033
@<TRIPOS>BOND
     1     1     2 1   
     2     1    11 1   
     3     1    12 1   
     4     2     3 ar  
     5     2     4 ar  
     6     3     8 ar  
     7     4     5 ar  
     8     5     6 1   
     9     5     7 ar  
    10     6    16 1   
    11     6    17 1   
    12     6    18 1   
    13     7     8 ar  
    14     8     9 1   
    15     9    10 1   
    16    10    13 1   
    17    10    14 1   
    18    10    15 1   
@<TRIPOS>SUBSTRUCTURE
     1 ZZ3         1 TEMP              0 ****  ****    0 ROOT
