@<TRIPOS>MOLECULE
ZZ4
   34    36     1     0     0
SMALL
bcc


@<TRIPOS>ATOM
      1 CL1          2.5420    -4.3720     0.4720 cl         1 ZZ4      -0.100400
      2 C2           2.0520    -2.7150     0.4340 ca         1 ZZ4       0.041400
      3 C1           1.2720    -2.2080     1.4610 ca         1 ZZ4      -0.128000
      4 C5           0.8880    -0.8790     1.4120 ca         1 ZZ4      -0.079000
      5 C3           2.4460    -1.9220    -0.6300 ca         1 ZZ4      -0.124000
      6 C4           2.0540    -0.5920    -0.6490 ca         1 ZZ4       0.065400
      7 CL2          2.5190     0.3760    -2.0030 cl         1 ZZ4      -0.089400
      8 C6           1.2760    -0.0470     0.3670 cp         1 ZZ4      -0.131500
      9 C7           0.8800     1.3810     0.3700 cp         1 ZZ4       0.592800
     10 N1           1.8450     2.2670     0.5090 nb         1 ZZ4      -0.771000
     11 C9          -0.4620     1.7560     0.2480 ca         1 ZZ4      -0.218200
     12 C10         -0.7130     3.1330     0.2890 ca         1 ZZ4       0.509200
     13 N3           0.2350     4.0270     0.4280 nb         1 ZZ4      -0.776000
     14 C8           1.4940     3.5590     0.5330 ca         1 ZZ4       0.931900
     15 N2           2.4660     4.4590     0.6770 nv         1 ZZ4      -0.949500
     16 N4          -1.4110     0.7590     0.0740 ne         1 ZZ4      -0.175400
     17 N5          -2.5930     1.1340     0.0300 nf         1 ZZ4      -0.219400
     18 C13         -3.5330     0.1040    -0.1500 ca         1 ZZ4       0.081400
     19 C14         -4.8590     0.5120    -0.2660 ca         1 ZZ4      -0.095000
     20 C15         -5.8660    -0.4250    -0.4470 ca         1 ZZ4      -0.137000
     21 C16         -5.5520    -1.7750    -0.5080 ca         1 ZZ4      -0.111000
     22 C11         -4.2260    -2.1860    -0.3870 ca         1 ZZ4      -0.137000
     23 C12         -3.2170    -1.2560    -0.2090 ca         1 ZZ4      -0.095000
     24 H1           0.9650    -2.8350     2.2860 ha         1 ZZ4       0.153000
     25 H3           3.0430    -2.3290    -1.4340 ha         1 ZZ4       0.163000
     26 H5           0.2820    -0.4760     2.2130 ha         1 ZZ4       0.147000
     27 H10         -1.7280     3.5030     0.1940 h4         1 ZZ4       0.044100
     28 H21N         3.4270     4.1700     0.7300 hn         1 ZZ4       0.455800
     29 H22N         2.2540     5.4410     0.6810 hn         1 ZZ4       0.455800
     30 H14         -5.0880     1.5690    -0.2150 ha         1 ZZ4       0.147500
     31 H12         -2.1880    -1.5770    -0.1140 ha         1 ZZ4       0.147500
     32 H15         -6.8940    -0.1000    -0.5390 ha         1 ZZ4       0.134500
     33 H16         -6.3350    -2.5090    -0.6480 ha         1 ZZ4       0.132000
     34 H11         -3.9830    -3.2390    -0.4320 ha         1 ZZ4       0.134500
@<TRIPOS>BOND
     1     1     2 1   
     2     2     3 ar  
     3     2     5 ar  
     4     3     4 ar  
     5     3    24 1   
     6     4     8 ar  
     7     4    26 1   
     8     5     6 ar  
     9     5    25 1   
    10     6     7 1   
    11     6     8 ar  
    12     8     9 1   
    13     9    10 ar  
    14     9    11 ar  
    15    10    14 ar  
    16    11    12 ar  
    17    11    16 1   
    18    12    13 ar  
    19    12    27 1   
    20    13    14 ar  
    21    14    15 1   
    22    15    28 1   
    23    15    29 1   
    24    16    17 2   
    25    17    18 1   
    26    18    19 ar  
    27    18    23 ar  
    28    19    20 ar  
    29    19    30 1   
    30    20    21 ar  
    31    20    32 1   
    32    21    22 ar  
    33    21    33 1   
    34    22    23 ar  
    35    22    34 1   
    36    23    31 1   
@<TRIPOS>SUBSTRUCTURE
     1 ZZ4         1 TEMP              0 ****  ****    0 ROOT
