@<TRIPOS>MOLECULE
ZZ4
   34    36     1     0     0
SMALL
No Charge or Current Charge


@<TRIPOS>ATOM
      1 Cl1          2.2420    -4.4410     0.5300 cl         1 ZZ4      -0.192000
      2 C2           1.8440    -2.7300     0.4550 ca         1 ZZ4       0.133000
      3 C1           0.9010    -2.1920     1.3430 ca         1 ZZ4      -0.110000
      4 C5           0.5810    -0.8260     1.2810 ca         1 ZZ4      -0.061000
      5 C3           2.4650    -1.9080    -0.4950 ca         1 ZZ4      -0.106000
      6 C4           2.1490    -0.5400    -0.5610 ca         1 ZZ4       0.157000
      7 Cl2          2.9360     0.4320    -1.8030 cl         1 ZZ4      -0.181000
      8 C6           1.1990     0.0250     0.3310 cp         1 ZZ4      -0.131500
      9 C7           0.8400     1.4740     0.2800 cp         1 ZZ4       0.264500
     10 N1           1.8120     2.3530     0.5970 nb         1 ZZ4      -0.245000
     11 C9          -0.4630     1.9270    -0.0660 ca         1 ZZ4      -0.087600
     12 C10         -0.6720     3.3220    -0.0720 ca         1 ZZ4       0.180900
     13 N3           0.3090     4.1910     0.2450 nb         1 ZZ4      -0.250000
     14 C8           1.4930     3.6520     0.5610 ca         1 ZZ4       0.405900
     15 N2           2.4810     4.5220     0.8800 nv         1 ZZ4      -1.059900
     16 N4          -1.5160     1.0640    -0.4270 ne         1 ZZ4      -0.175400
     17 N5          -2.3310     0.7800     0.4970 nf         1 ZZ4      -0.219400
     18 C13         -3.3820    -0.0980     0.1410 ca         1 ZZ4       0.081400
     19 C14         -4.6310     0.4180    -0.2510 ca         1 ZZ4      -0.077000
     20 C15         -5.6780    -0.4550    -0.5990 ca         1 ZZ4      -0.119000
     21 C16         -5.4770    -1.8460    -0.5550 ca         1 ZZ4      -0.093000
     22 C11         -4.2310    -2.3640    -0.1620 ca         1 ZZ4      -0.119000
     23 C12         -3.1850    -1.4910     0.1870 ca         1 ZZ4      -0.077000
     24 H1           0.4200    -2.8320     2.0790 ha         1 ZZ4       0.135000
     25 H3           3.1900    -2.3300    -1.1850 ha         1 ZZ4       0.145000
     26 H5          -0.1480    -0.4170     1.9780 ha         1 ZZ4       0.129000
     27 H10         -1.6380     3.7500    -0.3350 h4         1 ZZ4       0.044100
     28 H21N         3.4390     4.1790     0.9010 hn         1 ZZ4       0.511000
     29 H22N         2.3570     5.5060     0.6500 hn         1 ZZ4       0.511000
     30 H14         -4.7880     1.4940    -0.2850 ha         1 ZZ4       0.129500
     31 H12         -2.2210    -1.8930     0.4910 ha         1 ZZ4       0.129500
     32 H15         -6.6420    -0.0540    -0.9030 ha         1 ZZ4       0.116500
     33 H16         -6.2870    -2.5220    -0.8250 ha         1 ZZ4       0.114000
     34 H11         -4.0750    -3.4400    -0.1270 ha         1 ZZ4       0.116500
@<TRIPOS>BOND
     1     1     2 1   
     2     2     3 ar  
     3     2     5 ar  
     4     3     4 ar  
     5     3    24 1   
     6     4     8 ar  
     7     4    26 1   
     8     5     6 ar  
     9     5    25 1   
    10     6     7 1   
    11     6     8 ar  
    12     8     9 1   
    13     9    10 ar  
    14     9    11 ar  
    15    10    14 ar  
    16    11    12 ar  
    17    11    16 1   
    18    12    13 ar  
    19    12    27 1   
    20    13    14 ar  
    21    14    15 1   
    22    15    28 1   
    23    15    29 1   
    24    16    17 2   
    25    17    18 1   
    26    18    19 ar  
    27    18    23 ar  
    28    19    20 ar  
    29    19    30 1   
    30    20    21 ar  
    31    20    32 1   
    32    21    22 ar  
    33    21    33 1   
    34    22    23 ar  
    35    22    34 1   
    36    23    31 1   
@<TRIPOS>SUBSTRUCTURE
     1 ZZ4         1 TEMP              0 ****  ****    0 ROOT
