@<TRIPOS>MOLECULE
ZZ5
   40    42     1     0     0
SMALL
abcg2


@<TRIPOS>ATOM
      1 N19         -1.3890     4.0690     0.1760 n1         1 ZZ5      -0.468000
      2 C14         -0.5460     3.2820     0.1420 cg         1 ZZ5       0.338000
      3 C6           0.5350     2.3640     0.0980 ca         1 ZZ5      -0.174000
      4 C13          1.8710     2.8620     0.2030 ca         1 ZZ5       0.691900
      5 N18          2.1210     4.1700     0.2970 nv         1 ZZ5      -1.074900
      6 N8           2.9080     2.0330     0.2250 nb         1 ZZ5      -0.756000
      7 C3           2.6580     0.7450     0.1240 ca         1 ZZ5       0.499300
      8 S7           3.9360    -0.4080     0.1300 ss         1 ZZ5      -0.131900
      9 C9           2.7970    -1.7330    -0.0720 cc         1 ZZ5      -0.308600
     10 C15          3.2290    -3.1150    -0.2040 c          1 ZZ5       0.667300
     11 N20          4.5460    -3.3730    -0.0770 nt         1 ZZ5      -0.602000
     12 O21          2.4210    -4.0200    -0.4390 o          1 ZZ5      -0.658100
     13 C4           1.4850    -1.3000    -0.1390 cd         1 ZZ5       0.311800
     14 N10          0.4170    -2.1070    -0.2840 nv         1 ZZ5      -0.935000
     15 C1           1.3930     0.1400    -0.0030 ca         1 ZZ5      -0.240800
     16 C2           0.2900     0.9990     0.0040 cp         1 ZZ5       0.159000
     17 C5          -1.1090     0.5250    -0.0600 cp         1 ZZ5      -0.134000
     18 C12         -1.8790     0.7230    -1.2070 ca         1 ZZ5      -0.044500
     19 C17         -3.1910     0.2970    -1.2550 ca         1 ZZ5      -0.180000
     20 C11         -1.6890    -0.1000     1.0370 ca         1 ZZ5      -0.044500
     21 C16         -3.0100    -0.5230     1.0040 ca         1 ZZ5      -0.180000
     22 C22         -3.7720    -0.3290    -0.1470 ca         1 ZZ5       0.166100
     23 O23         -5.0520    -0.7030    -0.2810 os         1 ZZ5      -0.345100
     24 C24         -5.7080    -1.3370     0.8130 c3         1 ZZ5       0.164600
     25 C25         -7.1230    -1.6500     0.3900 c3         1 ZZ5      -0.095100
     26 H181         1.3990     4.8680     0.2640 hn         1 ZZ5       0.507500
     27 H182         3.0720     4.4870     0.3770 hn         1 ZZ5       0.507500
     28 H201         5.2210    -2.6950     0.2340 hn         1 ZZ5       0.312000
     29 H202         4.8590    -4.3290    -0.1110 hn         1 ZZ5       0.312000
     30 H101         0.6030    -3.0670    -0.5260 hn         1 ZZ5       0.503500
     31 H102        -0.4630    -1.7220    -0.5780 hn         1 ZZ5       0.503500
     32 H12         -1.4450     1.2030    -2.0750 ha         1 ZZ5       0.125500
     33 H11         -1.1090    -0.2600     1.9370 ha         1 ZZ5       0.125500
     34 H17         -3.7800     0.4470    -2.1510 ha         1 ZZ5       0.128500
     35 H16         -3.4210    -0.9990     1.8830 ha         1 ZZ5       0.128500
     36 H241        -5.1790    -2.2540     1.0900 h1         1 ZZ5       0.036700
     37 H242        -5.7060    -0.6760     1.6860 h1         1 ZZ5       0.036700
     38 H251        -7.6690    -0.7450     0.1230 hc         1 ZZ5       0.049367
     39 H252        -7.1440    -2.3330    -0.4600 hc         1 ZZ5       0.049367
     40 H253        -7.6490    -2.1270     1.2160 hc         1 ZZ5       0.049367
@<TRIPOS>BOND
     1     1     2 3   
     2     2     3 1   
     3     3     4 ar  
     4     3    16 ar  
     5     4     5 1   
     6     4     6 ar  
     7     5    26 1   
     8     5    27 1   
     9     6     7 ar  
    10     7     8 1   
    11     7    15 ar  
    12     8     9 1   
    13     9    10 1   
    14     9    13 2   
    15    10    11 1   
    16    10    12 2   
    17    11    28 1   
    18    11    29 1   
    19    13    14 1   
    20    13    15 1   
    21    14    30 1   
    22    14    31 1   
    23    15    16 ar  
    24    16    17 1   
    25    17    18 ar  
    26    17    20 ar  
    27    18    19 ar  
    28    18    32 1   
    29    19    22 ar  
    30    19    34 1   
    31    20    21 ar  
    32    20    33 1   
    33    21    22 ar  
    34    21    35 1   
    35    22    23 1   
    36    23    24 1   
    37    24    25 1   
    38    24    36 1   
    39    24    37 1   
    40    25    38 1   
    41    25    39 1   
    42    25    40 1   
@<TRIPOS>SUBSTRUCTURE
     1 ZZ5         1 TEMP              0 ****  ****    0 ROOT
