@<TRIPOS>MOLECULE
ZZ5
   40    42     1     0     0
SMALL
No Charge or Current Charge


@<TRIPOS>ATOM
      1 N19         -1.3490     4.2440     0.3150 n1         1 ZZ5      -0.468000
      2 C14         -0.4940     3.4510     0.2750 cg         1 ZZ5       0.338000
      3 C6           0.5630     2.4860     0.2160 ca         1 ZZ5      -0.174000
      4 C13          1.9010     2.8990     0.2960 ca         1 ZZ5       0.691900
      5 N18          2.3290     4.1600     0.4130 nv         1 ZZ5      -1.074900
      6 N8           2.9540     2.0990     0.2570 nb         1 ZZ5      -0.756000
      7 C3           2.6910     0.7870     0.1360 ca         1 ZZ5       0.499300
      8 S7           4.0040    -0.4150     0.0730 ss         1 ZZ5      -0.131900
      9 C9           2.7790    -1.7060    -0.1020 cc         1 ZZ5      -0.308600
     10 C15          3.1240    -3.1350    -0.2600 c          1 ZZ5       0.667300
     11 N20          4.4410    -3.4020    -0.2440 nt         1 ZZ5      -0.602000
     12 O21          2.3230    -4.0450    -0.4000 o          1 ZZ5      -0.658100
     13 C4           1.4990    -1.1940    -0.0870 cd         1 ZZ5       0.311800
     14 N10          0.4080    -1.9870    -0.2050 nv         1 ZZ5      -0.935000
     15 C1           1.4220     0.2470     0.0490 ca         1 ZZ5      -0.240800
     16 C2           0.2940     1.1020     0.0900 cp         1 ZZ5       0.159000
     17 C5          -1.1030     0.5870     0.0070 cp         1 ZZ5      -0.134000
     18 C12         -1.8140     0.6220    -1.2150 ca         1 ZZ5      -0.044500
     19 C17         -3.1290     0.1330    -1.2900 ca         1 ZZ5      -0.180000
     20 C11         -1.7450     0.0570     1.1500 ca         1 ZZ5      -0.044500
     21 C16         -3.0610    -0.4320     1.0740 ca         1 ZZ5      -0.180000
     22 C22         -3.7590    -0.3940    -0.1520 ca         1 ZZ5       0.166100
     23 O23         -5.0510    -0.8580    -0.2890 os         1 ZZ5      -0.345100
     24 C24         -5.7850    -1.4140     0.8150 c3         1 ZZ5       0.164600
     25 C25         -7.1730    -1.8180     0.2920 c3         1 ZZ5      -0.095100
     26 H181         1.7280     4.8880     0.0440 hn         1 ZZ5       0.507500
     27 H182         3.3200     4.2700     0.2350 hn         1 ZZ5       0.507500
     28 H201         5.0990    -2.6470    -0.1290 hn         1 ZZ5       0.312000
     29 H202         4.7530    -4.3550    -0.3470 hn         1 ZZ5       0.312000
     30 H101         0.5440    -2.9830    -0.3790 hn         1 ZZ5       0.503500
     31 H102        -0.5190    -1.5870    -0.3150 hn         1 ZZ5       0.503500
     32 H12         -1.3390     1.0280    -2.1060 ha         1 ZZ5       0.125500
     33 H11         -1.2140     0.0240     2.0990 ha         1 ZZ5       0.125500
     34 H17         -3.6640     0.1650    -2.2350 ha         1 ZZ5       0.128500
     35 H16         -3.5200    -0.8330     1.9730 ha         1 ZZ5       0.128500
     36 H241        -5.2740    -2.2990     1.2160 h1         1 ZZ5       0.036700
     37 H242        -5.8990    -0.6760     1.6190 h1         1 ZZ5       0.036700
     38 H251        -7.7060    -0.9450    -0.1030 hc         1 ZZ5       0.049367
     39 H252        -7.0830    -2.5650    -0.5050 hc         1 ZZ5       0.049367
     40 H253        -7.7720    -2.2500     1.1020 hc         1 ZZ5       0.049367
@<TRIPOS>BOND
     1     1     2 3   
     2     2     3 1   
     3     3     4 ar  
     4     3    16 ar  
     5     4     5 1   
     6     4     6 ar  
     7     5    26 1   
     8     5    27 1   
     9     6     7 ar  
    10     7     8 1   
    11     7    15 ar  
    12     8     9 1   
    13     9    10 1   
    14     9    13 2   
    15    10    11 1   
    16    10    12 2   
    17    11    28 1   
    18    11    29 1   
    19    13    14 1   
    20    13    15 1   
    21    14    30 1   
    22    14    31 1   
    23    15    16 ar  
    24    16    17 1   
    25    17    18 ar  
    26    17    20 ar  
    27    18    19 ar  
    28    18    32 1   
    29    19    22 ar  
    30    19    34 1   
    31    20    21 ar  
    32    20    33 1   
    33    21    22 ar  
    34    21    35 1   
    35    22    23 1   
    36    23    24 1   
    37    24    25 1   
    38    24    36 1   
    39    24    37 1   
    40    25    38 1   
    41    25    39 1   
    42    25    40 1   
@<TRIPOS>SUBSTRUCTURE
     1 ZZ5         1 TEMP              0 ****  ****    0 ROOT
