@<TRIPOS>MOLECULE
ZZ8
   21    21     1     0     0
SMALL
No Charge or Current Charge


@<TRIPOS>ATOM
      1 O21          3.1670    -0.9370     0.3880 o          1 ZZ8      -0.649100
      2 C8           2.6460     0.1290     0.0780 c          1 ZZ8       0.604100
      3 C11          3.4790     1.3960    -0.1100 c3         1 ZZ8      -0.177100
      4 N7           1.2880     0.3180    -0.1180 ns         1 ZZ8      -0.166000
      5 C6           0.1700    -0.5630    -0.0900 ca         1 ZZ8       0.005000
      6 C1           0.3310    -1.9670    -0.1060 ca         1 ZZ8      -0.179000
      7 C2          -0.7820    -2.8200    -0.0760 ca         1 ZZ8      -0.106000
      8 C3          -2.0730    -2.2810    -0.0320 ca         1 ZZ8      -0.179000
      9 C4          -2.2530    -0.8900    -0.0240 ca         1 ZZ8      -0.063000
     10 C5          -1.1430    -0.0140    -0.0600 ca         1 ZZ8      -0.199600
     11 C10         -1.4000     1.4840    -0.0480 c          1 ZZ8       0.723600
     12 O12         -0.6310     2.2200    -0.6500 o          1 ZZ8      -0.711500
     13 O13         -2.3840     1.8940     0.5500 o          1 ZZ8      -0.711500
     14 H111         4.5500     1.2290     0.0580 hc         1 ZZ8       0.051367
     15 H112         3.2860     1.8070    -1.1080 hc         1 ZZ8       0.051367
     16 H113         3.0860     2.1830     0.5440 hc         1 ZZ8       0.051367
     17 H7           1.0330     1.2740    -0.3400 hn         1 ZZ8       0.230000
     18 H1           1.3170    -2.4190    -0.1530 ha         1 ZZ8       0.128000
     19 H2          -0.6430    -3.8980    -0.0890 ha         1 ZZ8       0.083000
     20 H3          -2.9370    -2.9410    -0.0080 ha         1 ZZ8       0.088000
     21 H4          -3.2650    -0.4890     0.0020 ha         1 ZZ8       0.126000
@<TRIPOS>BOND
     1     1     2 2   
     2     2     3 1   
     3     2     4 1   
     4     3    14 1   
     5     3    15 1   
     6     3    16 1   
     7     4     5 1   
     8     4    17 1   
     9     5     6 ar  
    10     5    10 ar  
    11     6     7 ar  
    12     6    18 1   
    13     7     8 ar  
    14     7    19 1   
    15     8     9 ar  
    16     8    20 1   
    17     9    10 ar  
    18     9    21 1   
    19    10    11 1   
    20    11    12 1   
    21    11    13 1   
@<TRIPOS>SUBSTRUCTURE
     1 ZZ8         1 TEMP              0 ****  ****    0 ROOT
