@<TRIPOS>MOLECULE
ZZ8
   21    21     1     0     0
SMALL
bcc


@<TRIPOS>ATOM
      1 O21          3.1190    -1.0030    -0.0500 o          1 ZZ8      -0.649100
      2 C8           2.5950     0.1000    -0.0830 c          1 ZZ8       0.671100
      3 C11          3.4080     1.3730    -0.1300 c3         1 ZZ8      -0.177100
      4 N7           1.2620     0.3290    -0.0800 ns         1 ZZ8      -0.492100
      5 C6           0.1950    -0.5620    -0.0520 ca         1 ZZ8       0.097600
      6 C1           0.3550    -1.9530    -0.0150 ca         1 ZZ8      -0.197000
      7 C2          -0.7510    -2.7860     0.0070 ca         1 ZZ8      -0.124000
      8 C3          -2.0340    -2.2610    -0.0070 ca         1 ZZ8      -0.197000
      9 C4          -2.1940    -0.8850    -0.0420 ca         1 ZZ8      -0.081000
     10 C5          -1.1090    -0.0130    -0.0650 ca         1 ZZ8      -0.199600
     11 C10         -1.3990     1.4850    -0.1030 c          1 ZZ8       0.934200
     12 O12         -0.4150     2.2720    -0.1290 o          1 ZZ8      -0.816800
     13 O13         -2.5870     1.8320    -0.1050 o          1 ZZ8      -0.816800
     14 H111         4.4700     1.1430    -0.1710 hc         1 ZZ8       0.051367
     15 H112         3.1460     1.9720    -1.0020 hc         1 ZZ8       0.051367
     16 H113         3.2180     1.9860     0.7530 hc         1 ZZ8       0.051367
     17 H7           0.9080     1.3030    -0.1070 hn         1 ZZ8       0.396500
     18 H1           1.3430    -2.3830    -0.0030 ha         1 ZZ8       0.146000
     19 H2          -0.6010    -3.8580     0.0340 ha         1 ZZ8       0.101000
     20 H3          -2.8970    -2.9130     0.0100 ha         1 ZZ8       0.106000
     21 H4          -3.1900    -0.4630    -0.0530 ha         1 ZZ8       0.144000
@<TRIPOS>BOND
     1     1     2 2   
     2     2     3 1   
     3     2     4 1   
     4     3    14 1   
     5     3    15 1   
     6     3    16 1   
     7     4     5 1   
     8     4    17 1   
     9     5     6 ar  
    10     5    10 ar  
    11     6     7 ar  
    12     6    18 1   
    13     7     8 ar  
    14     7    19 1   
    15     8     9 ar  
    16     8    20 1   
    17     9    10 ar  
    18     9    21 1   
    19    10    11 1   
    20    11    12 1   
    21    11    13 1   
@<TRIPOS>SUBSTRUCTURE
     1 ZZ8         1 TEMP              0 ****  ****    0 ROOT
