@<TRIPOS>MOLECULE
ZZA
   21    22     1     0     0
SMALL
No Charge or Current Charge


@<TRIPOS>ATOM
      1 O1           4.7800    12.3710     4.7600 o          1 ZZA      -0.725000
      2 C2           4.6610    13.5460     4.4500 c          1 ZZA       0.739600
      3 O3           4.6200    14.4480     5.2740 o          1 ZZA      -0.725000
      4 C4           4.5620    13.8920     3.0210 cc         1 ZZA      -0.215600
      5 C5           4.5960    12.9710     1.9580 cc         1 ZZA       0.276900
      6 N6           4.4970    13.5240     0.7610 nd         1 ZZA      -0.584800
      7 N7           4.3800    14.8600     1.1050 na         1 ZZA       0.186000
      8 C8           4.4280    15.1380     2.4710 cd         1 ZZA      -0.161000
      9 C9           4.2830    15.9520     0.2380 ca         1 ZZA       0.062800
     10 C10          3.2000    16.8510     0.3320 ca         1 ZZA      -0.131000
     11 C11          3.1080    17.9470    -0.5430 ca         1 ZZA      -0.101500
     12 C12          4.0980    18.1510    -1.5200 ca         1 ZZA      -0.148000
     13 C13          5.1780    17.2580    -1.6230 ca         1 ZZA      -0.101500
     14 C14          5.2700    16.1620    -0.7480 ca         1 ZZA      -0.131000
     15 H5           4.6970    11.8950     2.0250 h4         1 ZZA       0.037100
     16 H8           4.3680    16.1290     2.9040 h4         1 ZZA       0.154000
     17 H10          2.4280    16.6960     1.0830 ha         1 ZZA       0.132500
     18 H14          6.1070    15.4730    -0.8310 ha         1 ZZA       0.132500
     19 H11          2.2710    18.6370    -0.4650 ha         1 ZZA       0.102000
     20 H12          4.0270    18.9990    -2.1970 ha         1 ZZA       0.100000
     21 H13          5.9430    17.4160    -2.3800 ha         1 ZZA       0.102000
@<TRIPOS>BOND
     1     1     2 1   
     2     2     3 1   
     3     2     4 1   
     4     4     5 1   
     5     4     8 2   
     6     5     6 2   
     7     5    15 1   
     8     6     7 1   
     9     7     8 1   
    10     7     9 1   
    11     8    16 1   
    12     9    10 ar  
    13     9    14 ar  
    14    10    11 ar  
    15    10    17 1   
    16    11    12 ar  
    17    11    19 1   
    18    12    13 ar  
    19    12    20 1   
    20    13    14 ar  
    21    13    21 1   
    22    14    18 1   
@<TRIPOS>SUBSTRUCTURE
     1 ZZA         1 TEMP              0 ****  ****    0 ROOT
