@<TRIPOS>MOLECULE
ZZA
   21    22     1     0     0
SMALL
bcc


@<TRIPOS>ATOM
      1 O1           4.7520    12.2180     4.7290 o          1 ZZA      -0.830300
      2 C2           4.3870    13.3850     4.4820 c          1 ZZA       0.950200
      3 O3           3.9170    14.2160     5.2850 o          1 ZZA      -0.830300
      4 C4           4.5310    13.8360     3.0610 cc         1 ZZA      -0.280900
      5 C5           5.0460    13.1240     1.9570 cc         1 ZZA       0.342200
      6 N6           5.0260    13.8430     0.8560 nd         1 ZZA      -0.584800
      7 N7           4.5020    15.0220     1.2160 na         1 ZZA       0.135300
      8 C8           4.1950    15.0580     2.5320 cd         1 ZZA      -0.128300
      9 C9           4.3470    16.0500     0.2670 ca         1 ZZA       0.062800
     10 C10          3.3940    17.0440     0.4670 ca         1 ZZA      -0.149000
     11 C11          3.2600    18.0660    -0.4620 ca         1 ZZA      -0.119500
     12 C12          4.0580    18.0940    -1.5980 ca         1 ZZA      -0.166000
     13 C13          4.9970    17.0900    -1.7960 ca         1 ZZA      -0.119500
     14 C14          5.1500    16.0720    -0.8680 ca         1 ZZA      -0.149000
     15 H5           5.4260    12.1140     1.9360 h4         1 ZZA       0.037100
     16 H8           3.7880    15.9380     3.0020 h4         1 ZZA       0.172000
     17 H10          2.7430    17.0210     1.3310 ha         1 ZZA       0.150500
     18 H14          5.8920    15.3000    -1.0230 ha         1 ZZA       0.150500
     19 H11          2.5180    18.8350    -0.2990 ha         1 ZZA       0.120000
     20 H12          3.9460    18.8880    -2.3240 ha         1 ZZA       0.118000
     21 H13          5.6250    17.1020    -2.6770 ha         1 ZZA       0.120000
@<TRIPOS>BOND
     1     1     2 1   
     2     2     3 1   
     3     2     4 1   
     4     4     5 1   
     5     4     8 2   
     6     5     6 2   
     7     5    15 1   
     8     6     7 1   
     9     7     8 1   
    10     7     9 1   
    11     8    16 1   
    12     9    10 ar  
    13     9    14 ar  
    14    10    11 ar  
    15    10    17 1   
    16    11    12 ar  
    17    11    19 1   
    18    12    13 ar  
    19    12    20 1   
    20    13    14 ar  
    21    13    21 1   
    22    14    18 1   
@<TRIPOS>SUBSTRUCTURE
     1 ZZA         1 TEMP              0 ****  ****    0 ROOT
