@<TRIPOS>MOLECULE
ZZC
   56    58     1     0     0
SMALL
No Charge or Current Charge


@<TRIPOS>ATOM
      1 N1          -6.4030     2.0730    -0.6810 nb         1 ZZC      -0.328000
      2 C2          -5.7850     2.0450     0.5230 ca         1 ZZC       0.136900
      3 N3          -4.4920     1.7260     0.7610 nb         1 ZZC      -0.208000
      4 C4          -3.7510     1.4020    -0.3200 ca         1 ZZC       0.123500
      5 C5          -4.2810     1.4020    -1.5860 ca         1 ZZC      -0.049600
      6 C6          -5.6430     1.7470    -1.7380 ca         1 ZZC       0.422900
      7 N6          -6.2690     1.7850    -2.9470 nv         1 ZZC      -1.076900
      8 N7          -3.3460     1.0600    -2.5550 nc         1 ZZC      -0.562100
      9 C8          -2.2380     0.8490    -1.8130 cd         1 ZZC       0.480700
     10 N9          -2.4310     1.0390    -0.4300 na         1 ZZC      -0.276300
     11 PA           0.4410    -2.5210    -1.9920 p5         1 ZZC       1.480800
     12 PB           2.0830    -0.6130    -2.6940 p5         1 ZZC       1.461800
     13 C2'A         4.2690    -0.1900     2.9180 c          1 ZZC       0.558100
     14 C3'A         3.8910     0.7200     1.7130 c3         1 ZZC       0.031300
     15 C4'A         3.7470    -0.1160     0.4110 c3         1 ZZC       0.133300
     16 C5'A         3.4130     0.7420    -0.8420 c3         1 ZZC       0.207600
     17 O2'A         3.4600    -0.9470     3.4460 o          1 ZZC      -0.547100
     18 O4'A         4.9620    -0.8430     0.1600 oh         1 ZZC      -0.649000
     19 O5'A         3.4520    -0.1110    -2.0000 os         1 ZZC      -0.567400
     20 C1          -1.4110     0.9700     0.6150 c5         1 ZZC       0.331300
     21 O1A         -0.6820    -1.8530    -2.7110 o          1 ZZC      -0.849000
     22 O1B          1.1800     0.5550    -2.9140 o          1 ZZC      -0.850000
     23 C7          -1.8370     0.2630     1.9590 c5         1 ZZC       0.060300
     24 O2          -2.2080     1.1680     3.0220 oh         1 ZZC      -0.703000
     25 O2A          0.9350    -3.7330    -2.7110 o          1 ZZC      -0.849000
     26 O2B          2.4330    -1.3120    -3.9650 o          1 ZZC      -0.850000
     27 C3          -0.5500    -0.5220     2.3270 c5         1 ZZC       0.098300
     28 O3           0.3820     0.3480     2.9750 oh         1 ZZC      -0.712000
     29 O3A          1.6240    -1.5830    -1.5390 os         1 ZZC      -0.701800
     30 C9          -0.0860    -0.9660     0.9110 c5         1 ZZC       0.137300
     31 O4          -0.2560     0.2430     0.1300 os         1 ZZC      -0.384000
     32 C10         -0.8980    -2.1500     0.3020 c3         1 ZZC       0.228600
     33 O5          -0.0550    -2.9750    -0.5230 os         1 ZZC      -0.582400
     34 H2          -6.3910     2.3080     1.3890 h5         1 ZZC       0.015100
     35 HN6         -7.1450     2.2960    -3.0170 hn         1 ZZC       0.487000
     36 HN6A        -5.6830     1.7540    -3.7780 hn         1 ZZC       0.487000
     37 H8          -1.2650     0.5810    -2.2070 h5         1 ZZC       0.135800
     38 H1'A         5.8940     0.9790     3.7040 hc         1 ZZC       0.053700
     39 H1'B         5.8960    -0.7340     4.2970 hc         1 ZZC       0.053700
     40 H1'C         6.4020    -0.2390     2.6250 hc         1 ZZC       0.053700
     41 H3'A         4.7370     1.4050     1.5650 h1         1 ZZC       0.071700
     42 H4'A         2.9290    -0.8290     0.5570 h1         1 ZZC       0.089700
     43 H5'A         2.4260     1.2060    -0.7150 h1         1 ZZC       0.019700
     44 H5'B         4.1520     1.5480    -0.9420 h1         1 ZZC       0.019700
     45 H4'B         4.9330    -1.0520    -0.8030 ho         1 ZZC       0.435000
     46 H1          -1.1140     2.0070     0.8140 h2         1 ZZC       0.096700
     47 H6          -2.6570    -0.4440     1.7650 h1         1 ZZC       0.066700
     48 HO2         -3.1000     1.5300     2.8020 ho         1 ZZC       0.491000
     49 H3          -0.7740    -1.3840     2.9710 h1         1 ZZC       0.036700
     50 HO3         -0.2120     0.9820     3.4520 ho         1 ZZC       0.499000
     51 H4           0.9680    -1.2550     0.9360 h1         1 ZZC       0.092700
     52 H5          -1.2930    -2.7610     1.1240 h1         1 ZZC       0.014200
     53 H5'C        -1.7600    -1.7720    -0.2630 h1         1 ZZC       0.014200
     54 O3'A         2.6930     1.5040     1.9700 oh         1 ZZC      -0.644000
     55 H3'B         1.9820     0.9030     2.3260 ho         1 ZZC       0.457000
     56 C1'A         5.6990    -0.0690     3.4480 c3         1 ZZC      -0.191100
@<TRIPOS>BOND
     1     1     2 ar  
     2     1     6 ar  
     3     2     3 ar  
     4     2    34 1   
     5     3     4 ar  
     6     4     5 ar  
     7     4    10 1   
     8     5     6 ar  
     9     5     8 1   
    10     6     7 1   
    11     7    35 1   
    12     7    36 1   
    13     8     9 2   
    14     9    10 1   
    15     9    37 1   
    16    10    20 1   
    17    11    21 1   
    18    11    25 1   
    19    11    29 1   
    20    11    33 1   
    21    12    19 1   
    22    12    22 1   
    23    12    26 1   
    24    12    29 1   
    25    13    14 1   
    26    13    17 2   
    27    13    56 1   
    28    14    15 1   
    29    14    41 1   
    30    14    54 1   
    31    15    16 1   
    32    15    18 1   
    33    15    42 1   
    34    16    19 1   
    35    16    43 1   
    36    16    44 1   
    37    18    45 1   
    38    20    23 1   
    39    20    31 1   
    40    20    46 1   
    41    23    24 1   
    42    23    27 1   
    43    23    47 1   
    44    24    48 1   
    45    27    28 1   
    46    27    30 1   
    47    27    49 1   
    48    28    50 1   
    49    30    31 1   
    50    30    32 1   
    51    30    51 1   
    52    32    33 1   
    53    32    52 1   
    54    32    53 1   
    55    38    56 1   
    56    39    56 1   
    57    40    56 1   
    58    54    55 1   
@<TRIPOS>SUBSTRUCTURE
     1 ZZC         1 TEMP              0 ****  ****    0 ROOT
