@<TRIPOS>MOLECULE
ZZC
   56    58     1     0     0
SMALL
bcc


@<TRIPOS>ATOM
      1 N1          -4.0950     3.9710    -0.2230 nb         1 ZZC      -0.854000
      2 C2          -4.1610     3.3250     0.9390 ca         1 ZZC       0.662900
      3 N3          -3.8300     2.0730     1.2010 nb         1 ZZC      -0.734000
      4 C4          -3.3770     1.4430     0.1190 ca         1 ZZC       0.451800
      5 C5          -3.2510     1.9820    -1.1520 ca         1 ZZC      -0.180200
      6 C6          -3.6400     3.3220    -1.3010 ca         1 ZZC       0.751200
      7 N6          -3.5930     3.9620    -2.4780 nv         1 ZZC      -0.966500
      8 N7          -2.7460     1.0540    -2.0260 nc         1 ZZC      -0.562100
      9 C8          -2.5650    -0.0110    -1.3020 cd         1 ZZC       0.480700
     10 N9          -2.9420     0.1560     0.0040 na         1 ZZC      -0.247000
     11 PA           0.3120    -2.8060    -1.5120 p5         1 ZZC       1.480800
     12 PB           1.2480    -0.0550    -1.1670 p5         1 ZZC       1.461800
     13 C2'A         6.2700     2.2790     1.9730 c          1 ZZC       0.558100
     14 C3'A         5.2930     2.3450     0.7980 c3         1 ZZC       0.008100
     15 C4'A         4.4000     1.0870     0.8260 c3         1 ZZC       0.110100
     16 C5'A         3.5020     1.0340    -0.3980 c3         1 ZZC       0.184400
     17 O2'A         5.8980     2.6480     3.0640 o          1 ZZC      -0.547100
     18 O4'A         5.1730    -0.0790     0.9840 oh         1 ZZC      -0.586800
     19 O5'A         2.6500    -0.0820    -0.2890 os         1 ZZC      -0.544200
     20 C1          -2.9540    -0.8360     1.0500 c5         1 ZZC       0.278800
     21 O1A         -0.7810    -2.4540    -2.4770 o          1 ZZC      -0.849000
     22 O1B          0.3680     1.0300    -0.6340 o          1 ZZC      -0.850000
     23 C7          -4.0580    -1.8820     0.8920 c5         1 ZZC       0.037100
     24 O2          -5.2600    -1.3920     1.4080 oh         1 ZZC      -0.580800
     25 O2A          1.5480    -3.5120    -1.9660 o          1 ZZC      -0.849000
     26 O2B          1.5780    -0.1250    -2.6260 o          1 ZZC      -0.850000
     27 C3          -3.4560    -3.0610     1.6580 c5         1 ZZC       0.075100
     28 O3          -3.5730    -2.8720     3.0450 oh         1 ZZC      -0.589800
     29 O3A          0.7280    -1.5000    -0.6130 os         1 ZZC      -0.701800
     30 C9          -1.9880    -2.9420     1.2640 c5         1 ZZC       0.114100
     31 O4          -1.7550    -1.5490     1.0430 os         1 ZZC      -0.337600
     32 C10         -1.6660    -3.7660     0.0290 c3         1 ZZC       0.205400
     33 O5          -0.2960    -3.7310    -0.2960 os         1 ZZC      -0.559200
     34 H2          -4.5330     3.9070     1.7750 h5         1 ZZC       0.015100
     35 HN6         -3.7400     4.9560    -2.5040 hn         1 ZZC       0.431800
     36 HN6A        -3.1060     3.5480    -3.2540 hn         1 ZZC       0.431800
     37 H8          -2.1360    -0.9380    -1.6610 h5         1 ZZC       0.135800
     38 H1'A         8.2030     2.5960     1.1880 hc         1 ZZC       0.053700
     39 H1'B         8.1870     1.5510     2.6190 hc         1 ZZC       0.053700
     40 H1'C         7.6600     0.9400     1.0300 hc         1 ZZC       0.053700
     41 H3'A         5.8550     2.3710    -0.1430 h1         1 ZZC       0.071700
     42 H4'A         3.7700     1.1500     1.7210 h1         1 ZZC       0.089700
     43 H5'A         2.9410     1.9720    -0.4620 h1         1 ZZC       0.019700
     44 H5'B         4.1220     0.9670    -1.3030 h1         1 ZZC       0.019700
     45 H4'B         5.6120    -0.2820     0.1510 ho         1 ZZC       0.396000
     46 H1          -3.0940    -0.2850     1.9870 h2         1 ZZC       0.096700
     47 H6          -4.1540    -2.1550    -0.1670 h1         1 ZZC       0.066700
     48 HO2         -5.9840    -1.9260     1.0660 ho         1 ZZC       0.392000
     49 H3          -3.8900    -4.0190     1.3430 h1         1 ZZC       0.036700
     50 HO3         -4.4800    -2.6010     3.2310 ho         1 ZZC       0.400000
     51 H4          -1.3440    -3.2720     2.0860 h1         1 ZZC       0.092700
     52 H5          -1.9250    -4.8060     0.2510 h1         1 ZZC       0.014200
     53 H5'C        -2.2830    -3.4540    -0.8190 h1         1 ZZC       0.014200
     54 O3'A         4.5320     3.5210     0.8460 oh         1 ZZC      -0.581800
     55 H3'B         4.1140     3.5760     1.7140 ho         1 ZZC       0.418000
     56 C1'A         7.6590     1.7980     1.7010 c3         1 ZZC      -0.191100
@<TRIPOS>BOND
     1     1     2 ar  
     2     1     6 ar  
     3     2     3 ar  
     4     2    34 1   
     5     3     4 ar  
     6     4     5 ar  
     7     4    10 1   
     8     5     6 ar  
     9     5     8 1   
    10     6     7 1   
    11     7    35 1   
    12     7    36 1   
    13     8     9 2   
    14     9    10 1   
    15     9    37 1   
    16    10    20 1   
    17    11    21 1   
    18    11    25 1   
    19    11    29 1   
    20    11    33 1   
    21    12    19 1   
    22    12    22 1   
    23    12    26 1   
    24    12    29 1   
    25    13    14 1   
    26    13    17 2   
    27    13    56 1   
    28    14    15 1   
    29    14    41 1   
    30    14    54 1   
    31    15    16 1   
    32    15    18 1   
    33    15    42 1   
    34    16    19 1   
    35    16    43 1   
    36    16    44 1   
    37    18    45 1   
    38    20    23 1   
    39    20    31 1   
    40    20    46 1   
    41    23    24 1   
    42    23    27 1   
    43    23    47 1   
    44    24    48 1   
    45    27    28 1   
    46    27    30 1   
    47    27    49 1   
    48    28    50 1   
    49    30    31 1   
    50    30    32 1   
    51    30    51 1   
    52    32    33 1   
    53    32    52 1   
    54    32    53 1   
    55    38    56 1   
    56    39    56 1   
    57    40    56 1   
    58    54    55 1   
@<TRIPOS>SUBSTRUCTURE
     1 ZZC         1 TEMP              0 ****  ****    0 ROOT
