@<TRIPOS>MOLECULE
ZZD
   46    48     1     0     0
SMALL
abcg2


@<TRIPOS>ATOM
      1 N            2.2780   -17.5030    53.6990 n8         1 ZZD      -0.995200
      2 CA           2.1680   -18.8170    54.3100 c3         1 ZZD       0.014500
      3 CB           1.7620   -19.8350    53.2530 c3         1 ZZD       0.106600
      4 C            3.4390   -19.3470    55.0330 c          1 ZZD       0.699000
      5 O            3.2780   -20.3900    55.6990 o          1 ZZD      -0.724500
      6 OXT          4.4940   -18.7090    54.8710 o          1 ZZD      -0.724500
      7 SG           0.2890   -19.2300    52.3710 ss         1 ZZD      -0.439000
      8 CAM         -1.6760   -20.9280    49.4730 ca         1 ZZD      -0.093667
      9 CAG         -2.7230   -20.5460    48.6420 ca         1 ZZD      -0.118500
     10 CAD         -3.6390   -19.5940    49.0610 ca         1 ZZD      -0.117333
     11 CAH         -3.5080   -19.0370    50.3270 ca         1 ZZD      -0.118500
     12 CAN         -2.4680   -19.4250    51.1570 ca         1 ZZD      -0.093667
     13 CAV         -1.5240   -20.3640    50.7360 ca         1 ZZD      -0.060967
     14 CAZ         -0.4260   -20.8040    51.7070 c3         1 ZZD       0.224900
     15 CAX          0.7230   -21.5410    51.0260 ca         1 ZZD      -0.060967
     16 CAQ          1.3680   -20.9440    49.9380 ca         1 ZZD      -0.093667
     17 CAK          2.4540   -21.5500    49.3310 ca         1 ZZD      -0.118500
     18 CAF          2.9370   -22.7650    49.8060 ca         1 ZZD      -0.117333
     19 CAL          2.3200   -23.3560    50.8940 ca         1 ZZD      -0.118500
     20 CAR          1.2240   -22.7480    51.4990 ca         1 ZZD      -0.093667
     21 CAW         -1.1150   -21.6520    52.7800 ca         1 ZZD      -0.060967
     22 CAO         -1.1470   -21.3150    54.1260 ca         1 ZZD      -0.093667
     23 CAI         -1.8020   -22.1240    55.0500 ca         1 ZZD      -0.118500
     24 CAE         -2.4430   -23.2810    54.6400 ca         1 ZZD      -0.117333
     25 CAJ         -2.4290   -23.6230    53.2920 ca         1 ZZD      -0.118500
     26 CAP         -1.7750   -22.8170    52.3770 ca         1 ZZD      -0.093667
     27 HN1          2.4020   -16.8110    54.4270 hn         1 ZZD       0.386000
     28 HN2          3.1390   -17.4710    53.1650 hn         1 ZZD       0.386000
     29 HA           1.3600   -18.7680    55.0490 h1         1 ZZD       0.045700
     30 HB1C         2.5690   -19.9920    52.5320 h1         1 ZZD       0.067200
     31 HB2C         1.5410   -20.7940    53.7180 h1         1 ZZD       0.067200
     32 HAD         -4.4510   -19.2930    48.4110 ha         1 ZZD       0.101000
     33 HAH         -4.2220   -18.3020    50.6740 ha         1 ZZD       0.104833
     34 HAN         -2.4000   -18.9950    52.1490 ha         1 ZZD       0.127000
     35 HAQ          1.0230   -19.9880    49.5670 ha         1 ZZD       0.127000
     36 HAR          0.7740   -23.2320    52.3550 ha         1 ZZD       0.127000
     37 HAK          2.9310   -21.0680    48.4860 ha         1 ZZD       0.104833
     38 HAF          3.7890   -23.2370    49.3340 ha         1 ZZD       0.101000
     39 HAL          2.6890   -24.2950    51.2860 ha         1 ZZD       0.104833
     40 HAO         -0.6710   -20.4060    54.4680 ha         1 ZZD       0.127000
     41 HAP         -1.7760   -23.1010    51.3310 ha         1 ZZD       0.127000
     42 HAI         -1.8090   -21.8390    56.0940 ha         1 ZZD       0.104833
     43 HAE         -2.9530   -23.9100    55.3580 ha         1 ZZD       0.101000
     44 HAJ         -2.9300   -24.5200    52.9530 ha         1 ZZD       0.104833
     45 HAM         -0.9810   -21.6790    49.1220 ha         1 ZZD       0.127000
     46 HAG         -2.8180   -21.0010    47.6640 ha         1 ZZD       0.104833
@<TRIPOS>BOND
     1     1     2 1   
     2     1    27 1   
     3     1    28 1   
     4     2     3 1   
     5     2     4 1   
     6     2    29 1   
     7     3     7 1   
     8     3    30 1   
     9     3    31 1   
    10     4     5 1   
    11     4     6 1   
    12     7    14 1   
    13     8     9 ar  
    14     8    13 ar  
    15     8    45 1   
    16     9    10 ar  
    17     9    46 1   
    18    10    11 ar  
    19    10    32 1   
    20    11    12 ar  
    21    11    33 1   
    22    12    13 ar  
    23    12    34 1   
    24    13    14 1   
    25    14    15 1   
    26    14    21 1   
    27    15    16 ar  
    28    15    20 ar  
    29    16    17 ar  
    30    16    35 1   
    31    17    18 ar  
    32    17    37 1   
    33    18    19 ar  
    34    18    38 1   
    35    19    20 ar  
    36    19    39 1   
    37    20    36 1   
    38    21    22 ar  
    39    21    26 ar  
    40    22    23 ar  
    41    22    40 1   
    42    23    24 ar  
    43    23    42 1   
    44    24    25 ar  
    45    24    43 1   
    46    25    26 ar  
    47    25    44 1   
    48    26    41 1   
@<TRIPOS>SUBSTRUCTURE
     1 ZZD         1 TEMP              0 ****  ****    0 ROOT
