@<TRIPOS>MOLECULE
ZZD
   46    48     1     0     0
SMALL
No Charge or Current Charge


@<TRIPOS>ATOM
      1 N            2.8240   -17.5560    53.7510 n8         1 ZZD      -0.995200
      2 CA           2.2600   -18.8130    54.3900 c3         1 ZZD       0.014500
      3 CB           1.7200   -19.8220    53.3400 c3         1 ZZD       0.106600
      4 C            3.2300   -19.5780    55.3710 c          1 ZZD       0.699000
      5 O            2.9080   -19.6720    56.5480 o          1 ZZD      -0.724500
      6 OXT          4.3090   -19.9640    54.9390 o          1 ZZD      -0.724500
      7 SG           0.2480   -19.1620    52.4070 ss         1 ZZD      -0.439000
      8 CAM         -1.8300   -21.0870    49.5140 ca         1 ZZD      -0.093667
      9 CAG         -2.8890   -20.7570    48.6500 ca         1 ZZD      -0.118500
     10 CAD         -3.7630   -19.7090    48.9730 ca         1 ZZD      -0.117333
     11 CAH         -3.5830   -18.9980    50.1690 ca         1 ZZD      -0.118500
     12 CAN         -2.5250   -19.3260    51.0340 ca         1 ZZD      -0.093667
     13 CAV         -1.6140   -20.3610    50.7110 ca         1 ZZD      -0.060967
     14 CAZ         -0.4730   -20.7360    51.6910 c3         1 ZZD       0.224900
     15 CAX          0.7210   -21.4120    50.9680 ca         1 ZZD      -0.060967
     16 CAQ          1.2540   -20.8170    49.8010 ca         1 ZZD      -0.093667
     17 CAK          2.3540   -21.3840    49.1360 ca         1 ZZD      -0.118500
     18 CAF          2.9560   -22.5470    49.6380 ca         1 ZZD      -0.117333
     19 CAL          2.4630   -23.1350    50.8120 ca         1 ZZD      -0.118500
     20 CAR          1.3610   -22.5700    51.4780 ca         1 ZZD      -0.093667
     21 CAW         -1.1250   -21.6400    52.7730 ca         1 ZZD      -0.060967
     22 CAO         -1.3110   -21.2320    54.1180 ca         1 ZZD      -0.093667
     23 CAI         -1.9310   -22.0830    55.0500 ca         1 ZZD      -0.118500
     24 CAE         -2.3920   -23.3480    54.6570 ca         1 ZZD      -0.117333
     25 CAJ         -2.2400   -23.7590    53.3250 ca         1 ZZD      -0.118500
     26 CAP         -1.6210   -22.9110    52.3920 ca         1 ZZD      -0.093667
     27 HN1          3.1340   -16.9140    54.4910 hn         1 ZZD       0.386000
     28 HN2          3.6990   -17.7990    53.2700 hn         1 ZZD       0.386000
     29 HA           1.4000   -18.4990    54.9980 h1         1 ZZD       0.045700
     30 HB1C         2.5150   -20.0850    52.6310 h1         1 ZZD       0.067200
     31 HB2C         1.4190   -20.7400    53.8600 h1         1 ZZD       0.067200
     32 HAD         -4.5830   -19.4560    48.3060 ha         1 ZZD       0.101000
     33 HAH         -4.2690   -18.1960    50.4310 ha         1 ZZD       0.104833
     34 HAN         -2.4250   -18.7740    51.9650 ha         1 ZZD       0.127000
     35 HAQ          0.8100   -19.9060    49.4050 ha         1 ZZD       0.127000
     36 HAR          1.0250   -23.0370    52.3990 ha         1 ZZD       0.127000
     37 HAK          2.7430   -20.9160    48.2340 ha         1 ZZD       0.104833
     38 HAF          3.8100   -22.9850    49.1250 ha         1 ZZD       0.101000
     39 HAL          2.9390   -24.0270    51.2120 ha         1 ZZD       0.104833
     40 HAO         -0.9900   -20.2550    54.4640 ha         1 ZZD       0.127000
     41 HAP         -1.5180   -23.2490    51.3640 ha         1 ZZD       0.127000
     42 HAI         -2.0600   -21.7560    56.0790 ha         1 ZZD       0.104833
     43 HAE         -2.8730   -24.0030    55.3800 ha         1 ZZD       0.101000
     44 HAJ         -2.6050   -24.7350    53.0130 ha         1 ZZD       0.104833
     45 HAM         -1.1840   -21.9190    49.2450 ha         1 ZZD       0.127000
     46 HAG         -3.0350   -21.3210    47.7310 ha         1 ZZD       0.104833
@<TRIPOS>BOND
     1     1     2 1   
     2     1    27 1   
     3     1    28 1   
     4     2     3 1   
     5     2     4 1   
     6     2    29 1   
     7     3     7 1   
     8     3    30 1   
     9     3    31 1   
    10     4     5 1   
    11     4     6 1   
    12     7    14 1   
    13     8     9 ar  
    14     8    13 ar  
    15     8    45 1   
    16     9    10 ar  
    17     9    46 1   
    18    10    11 ar  
    19    10    32 1   
    20    11    12 ar  
    21    11    33 1   
    22    12    13 ar  
    23    12    34 1   
    24    13    14 1   
    25    14    15 1   
    26    14    21 1   
    27    15    16 ar  
    28    15    20 ar  
    29    16    17 ar  
    30    16    35 1   
    31    17    18 ar  
    32    17    37 1   
    33    18    19 ar  
    34    18    38 1   
    35    19    20 ar  
    36    19    39 1   
    37    20    36 1   
    38    21    22 ar  
    39    21    26 ar  
    40    22    23 ar  
    41    22    40 1   
    42    23    24 ar  
    43    23    42 1   
    44    24    25 ar  
    45    24    43 1   
    46    25    26 ar  
    47    25    44 1   
    48    26    41 1   
@<TRIPOS>SUBSTRUCTURE
     1 ZZD         1 TEMP              0 ****  ****    0 ROOT
