@<TRIPOS>MOLECULE
ZZE
   41    42     1     0     0
SMALL
abcg2


@<TRIPOS>ATOM
      1 C1           8.8720    12.2430    16.9890 cc         1 ZZE      -0.055900
      2 C2           7.5810    12.2850    16.5000 cd         1 ZZE      -0.112300
      3 C3           9.6980    12.9170    16.0700 cc         1 ZZE       0.269300
      4 O4           9.2640    11.6000    18.1490 os         1 ZZE      -0.206200
      5 N5           7.6790    12.9620    15.3260 na         1 ZZE       0.122800
      6 C6           6.3270    11.7320    17.0870 c3         1 ZZE      -0.015100
      7 N7           8.9520    13.3480    15.0540 nd         1 ZZE      -0.509800
      8 C8          11.1690    13.1650    16.1430 c3         1 ZZE      -0.106700
      9 C9           9.5660    12.3480    19.2470 ca         1 ZZE       0.127100
     10 C10          6.6390    13.2270    14.3500 c3         1 ZZE       0.051600
     11 C11          5.9250    10.3660    16.5180 c3         1 ZZE      -0.087100
     12 C12         12.0020    11.8780    16.1370 c3         1 ZZE      -0.086100
     13 C13         10.1690    11.6690    20.3020 ca         1 ZZE      -0.108500
     14 C14          9.2950    13.7070    19.3470 ca         1 ZZE      -0.108500
     15 C15          6.7340    12.2830    13.1500 c3         1 ZZE       0.137600
     16 C16         10.5030    12.3640    21.4630 ca         1 ZZE       0.014500
     17 C17          9.6390    14.3850    20.5200 ca         1 ZZE       0.014500
     18 O18          5.6920    12.5360    12.2150 oh         1 ZZE      -0.647000
     19 C19         10.2460    13.7300    21.5890 ca         1 ZZE      -0.074000
     20 C20         11.1290    11.6660    22.5430 cg         1 ZZE       0.318000
     21 C21          9.3620    15.7840    20.6210 cg         1 ZZE       0.318000
     22 N22         11.6350    11.1060    23.4130 n1         1 ZZE      -0.436000
     23 N23          9.1370    16.9110    20.7030 n1         1 ZZE      -0.436000
     24 H61C         6.4870    11.6430    18.1630 hc         1 ZZE       0.060200
     25 H62C         5.5120    12.4460    16.9520 hc         1 ZZE       0.060200
     26 H81C        11.4480    13.7980    15.2980 hc         1 ZZE       0.057200
     27 H82C        11.3930    13.7330    17.0510 hc         1 ZZE       0.057200
     28 H101         5.6740    13.1090    14.8410 h1         1 ZZE       0.071200
     29 H102         6.7320    14.2610    14.0200 h1         1 ZZE       0.071200
     30 H111         5.7010    10.4300    15.4520 hc         1 ZZE       0.041367
     31 H112         6.7290     9.6400    16.6530 hc         1 ZZE       0.041367
     32 H113         5.0350     9.9930    17.0290 hc         1 ZZE       0.041367
     33 H121        11.8260    11.3070    15.2230 hc         1 ZZE       0.040033
     34 H122        13.0660    12.1130    16.1950 hc         1 ZZE       0.040033
     35 H123        11.7490    11.2420    16.9870 hc         1 ZZE       0.040033
     36 H13         10.3740    10.6110    20.2080 ha         1 ZZE       0.144500
     37 H14          8.8240    14.2340    18.5300 ha         1 ZZE       0.144500
     38 H151         7.6730    12.4500    12.6230 h1         1 ZZE       0.062200
     39 H152         6.7160    11.2440    13.4940 h1         1 ZZE       0.062200
     40 H18          4.8530    12.2650    12.6100 ho         1 ZZE       0.438000
     41 H19         10.5110    14.2640    22.4890 ha         1 ZZE       0.141000
@<TRIPOS>BOND
     1     1     2 2   
     2     1     3 1   
     3     1     4 1   
     4     2     5 1   
     5     2     6 1   
     6     3     7 2   
     7     3     8 1   
     8     4     9 1   
     9     5     7 1   
    10     5    10 1   
    11     6    11 1   
    12     6    24 1   
    13     6    25 1   
    14     8    12 1   
    15     8    26 1   
    16     8    27 1   
    17     9    13 ar  
    18     9    14 ar  
    19    10    15 1   
    20    10    28 1   
    21    10    29 1   
    22    11    30 1   
    23    11    31 1   
    24    11    32 1   
    25    12    33 1   
    26    12    34 1   
    27    12    35 1   
    28    13    16 ar  
    29    13    36 1   
    30    14    17 ar  
    31    14    37 1   
    32    15    18 1   
    33    15    38 1   
    34    15    39 1   
    35    16    19 ar  
    36    16    20 1   
    37    17    19 ar  
    38    17    21 1   
    39    18    40 1   
    40    19    41 1   
    41    20    22 3   
    42    21    23 3   
@<TRIPOS>SUBSTRUCTURE
     1 ZZE         1 TEMP              0 ****  ****    0 ROOT
