@<TRIPOS>MOLECULE
ZZE
   41    42     1     0     0
SMALL
No Charge or Current Charge


@<TRIPOS>ATOM
      1 C1           9.0550    12.1210    16.9680 cc         1 ZZE      -0.055900
      2 C2           7.7560    12.1780    16.5920 cd         1 ZZE      -0.112300
      3 C3           9.8530    12.8060    16.0450 cc         1 ZZE       0.269300
      4 O4           9.4490    11.4510    18.0980 os         1 ZZE      -0.206200
      5 N5           7.8220    12.9370    15.4050 na         1 ZZE       0.122800
      6 C6           6.5150    11.6150    17.2450 c3         1 ZZE      -0.015100
      7 N7           9.1290    13.3250    15.0730 nd         1 ZZE      -0.509800
      8 C8          11.3500    12.9350    16.1540 c3         1 ZZE      -0.106700
      9 C9           9.5900    12.2980    19.1930 ca         1 ZZE       0.127100
     10 C10          6.6970    13.3270    14.5360 c3         1 ZZE       0.051600
     11 C11          6.0210    10.3240    16.5650 c3         1 ZZE      -0.087100
     12 C12         12.0980    11.6470    15.7590 c3         1 ZZE      -0.086100
     13 C13         10.1590    11.7360    20.3490 ca         1 ZZE      -0.108500
     14 C14          9.1910    13.6600    19.2150 ca         1 ZZE      -0.108500
     15 C15          6.6500    12.5210    13.2220 c3         1 ZZE       0.137600
     16 C16         10.3450    12.5060    21.5120 ca         1 ZZE       0.014500
     17 C17          9.3750    14.4350    20.3770 ca         1 ZZE       0.014500
     18 O18          5.5280    12.9310    12.4190 oh         1 ZZE      -0.647000
     19 C19          9.9530    13.8570    21.5230 ca         1 ZZE      -0.074000
     20 C20         10.9330    11.9150    22.6840 cg         1 ZZE       0.318000
     21 C21          8.9700    15.8150    20.3950 cg         1 ZZE       0.318000
     22 N22         11.4090    11.4440    23.6400 n1         1 ZZE      -0.436000
     23 N23          8.6390    16.9340    20.4000 n1         1 ZZE      -0.436000
     24 H61C         6.7160    11.3980    18.3010 hc         1 ZZE       0.060200
     25 H62C         5.7090    12.3580    17.2400 hc         1 ZZE       0.060200
     26 H81C        11.6980    13.7580    15.5180 hc         1 ZZE       0.057200
     27 H82C        11.6200    13.2050    17.1820 hc         1 ZZE       0.057200
     28 H101         5.7580    13.1920    15.0840 h1         1 ZZE       0.071200
     29 H102         6.7990    14.3940    14.3020 h1         1 ZZE       0.071200
     30 H111         5.7410    10.5140    15.5230 hc         1 ZZE       0.041367
     31 H112         6.8060     9.5580    16.5790 hc         1 ZZE       0.041367
     32 H113         5.1440     9.9280    17.0890 hc         1 ZZE       0.041367
     33 H121        11.8700    11.3700    14.7220 hc         1 ZZE       0.040033
     34 H122        13.1820    11.7910    15.8460 hc         1 ZZE       0.040033
     35 H123        11.8090    10.8140    16.4110 hc         1 ZZE       0.040033
     36 H13         10.4610    10.6910    20.3350 ha         1 ZZE       0.144500
     37 H14          8.7330    14.1340    18.3510 ha         1 ZZE       0.144500
     38 H151         7.5880    12.6840    12.6730 h1         1 ZZE       0.062200
     39 H152         6.5890    11.4480    13.4540 h1         1 ZZE       0.062200
     40 H18          4.7140    12.5870    12.8510 ho         1 ZZE       0.438000
     41 H19         10.0950    14.4560    22.4210 ha         1 ZZE       0.141000
@<TRIPOS>BOND
     1     1     2 2   
     2     1     3 1   
     3     1     4 1   
     4     2     5 1   
     5     2     6 1   
     6     3     7 2   
     7     3     8 1   
     8     4     9 1   
     9     5     7 1   
    10     5    10 1   
    11     6    11 1   
    12     6    24 1   
    13     6    25 1   
    14     8    12 1   
    15     8    26 1   
    16     8    27 1   
    17     9    13 ar  
    18     9    14 ar  
    19    10    15 1   
    20    10    28 1   
    21    10    29 1   
    22    11    30 1   
    23    11    31 1   
    24    11    32 1   
    25    12    33 1   
    26    12    34 1   
    27    12    35 1   
    28    13    16 ar  
    29    13    36 1   
    30    14    17 ar  
    31    14    37 1   
    32    15    18 1   
    33    15    38 1   
    34    15    39 1   
    35    16    19 ar  
    36    16    20 1   
    37    17    19 ar  
    38    17    21 1   
    39    18    40 1   
    40    19    41 1   
    41    20    22 3   
    42    21    23 3   
@<TRIPOS>SUBSTRUCTURE
     1 ZZE         1 TEMP              0 ****  ****    0 ROOT
