@<TRIPOS>MOLECULE
ZZF
   44    46     1     0     0
SMALL
bcc


@<TRIPOS>ATOM
      1 C1           6.7430     1.8830     2.6040 c3         1 ZZF      -0.146400
      2 C2           6.0290     1.3880     1.3840 ca         1 ZZF       0.435600
      3 C3           5.6500     2.2550     0.3650 ca         1 ZZF      -0.246300
      4 C4           4.9750     1.7460    -0.7320 ca         1 ZZF      -0.087000
      5 C5           4.7130     0.3910    -0.7670 ca         1 ZZF      -0.045200
      6 C6           5.1220    -0.4280     0.2850 ca         1 ZZF       0.435600
      7 N7           5.7650     0.0830     1.3270 nb         1 ZZF      -0.679000
      8 C8           4.8470    -1.9000     0.2770 c3         1 ZZF      -0.150400
      9 O9           4.1030    -0.1590    -1.8690 os         1 ZZF      -0.235200
     10 C10          2.7710    -0.3750    -1.8580 ca         1 ZZF       0.210100
     11 C11          2.2330    -1.0010    -2.9860 ca         1 ZZF      -0.313300
     12 C12          0.8770    -1.2240    -2.9950 ca         1 ZZF       0.470200
     13 N13          0.0490    -0.8910    -2.0050 nb         1 ZZF      -0.748000
     14 C14          0.5700    -0.3020    -0.9420 ca         1 ZZF       0.706200
     15 C15          1.9400    -0.0150    -0.8170 ca         1 ZZF      -0.389300
     16 N16         -0.2430     0.0540     0.1090 nu         1 ZZF      -0.745300
     17 C17         -1.6000    -0.0840     0.2990 ca         1 ZZF       0.239600
     18 C18         -2.1090     0.3730     1.5270 ca         1 ZZF      -0.205000
     19 C19         -3.4500     0.2780     1.8250 ca         1 ZZF       0.001000
     20 C20         -4.3240    -0.2770     0.8950 ca         1 ZZF      -0.369500
     21 C21         -3.8410    -0.7320    -0.3230 ca         1 ZZF       0.001000
     22 C22         -2.4930    -0.6410    -0.6260 ca         1 ZZF      -0.205000
     23 S23         -6.0460    -0.3750     1.2580 sy         1 ZZF       1.289200
     24 O24         -6.6380    -1.3630     0.3710 o          1 ZZF      -0.604800
     25 O25         -6.1970    -0.5060     2.6990 o          1 ZZF      -0.604800
     26 N26         -6.7370     1.0670     0.8620 n8         1 ZZF      -0.882700
     27 H11C         6.0770     1.8700     3.4700 hc         1 ZZF       0.054700
     28 H12C         7.5960     1.2480     2.8430 hc         1 ZZF       0.054700
     29 H13C         7.0990     2.9040     2.4740 hc         1 ZZF       0.054700
     30 H3           5.8800     3.3100     0.4270 ha         1 ZZF       0.147000
     31 H4           4.6660     2.3870    -1.5470 ha         1 ZZF       0.153000
     32 H81C         5.1290    -2.3630    -0.6690 hc         1 ZZF       0.060033
     33 H82C         5.3970    -2.3840     1.0810 hc         1 ZZF       0.060033
     34 H83C         3.7840    -2.1010     0.4300 hc         1 ZZF       0.060033
     35 H11          2.8570    -1.2960    -3.8180 ha         1 ZZF       0.162000
     36 H15          2.3150     0.4740     0.0730 ha         1 ZZF       0.152000
     37 H12          0.4190    -1.7030    -3.8530 h4         1 ZZF       0.025100
     38 H16          0.2410     0.4850     0.8810 hn         1 ZZF       0.442800
     39 H18         -1.4360     0.8030     2.2590 ha         1 ZZF       0.153500
     40 H22         -2.1370    -1.0070    -1.5730 ha         1 ZZF       0.153500
     41 H19         -3.8020     0.6340     2.7840 ha         1 ZZF       0.152000
     42 H21         -4.5060    -1.1720    -1.0540 ha         1 ZZF       0.152000
     43 H261        -6.6780     1.2870    -0.1260 hn         1 ZZF       0.416300
     44 H262        -6.4040     1.8430     1.4240 hn         1 ZZF       0.416300
@<TRIPOS>BOND
     1     1     2 1   
     2     1    27 1   
     3     1    28 1   
     4     1    29 1   
     5     2     3 ar  
     6     2     7 ar  
     7     3     4 ar  
     8     3    30 1   
     9     4     5 ar  
    10     4    31 1   
    11     5     6 ar  
    12     5     9 1   
    13     6     7 ar  
    14     6     8 1   
    15     8    32 1   
    16     8    33 1   
    17     8    34 1   
    18     9    10 1   
    19    10    11 ar  
    20    10    15 ar  
    21    11    12 ar  
    22    11    35 1   
    23    12    13 ar  
    24    12    37 1   
    25    13    14 ar  
    26    14    15 ar  
    27    14    16 1   
    28    15    36 1   
    29    16    17 1   
    30    16    38 1   
    31    17    18 ar  
    32    17    22 ar  
    33    18    19 ar  
    34    18    39 1   
    35    19    20 ar  
    36    19    41 1   
    37    20    21 ar  
    38    20    23 1   
    39    21    22 ar  
    40    21    42 1   
    41    22    40 1   
    42    23    24 2   
    43    23    25 2   
    44    23    26 1   
    45    26    43 1   
    46    26    44 1   
@<TRIPOS>SUBSTRUCTURE
     1 ZZF         1 TEMP              0 ****  ****    0 ROOT
