@<TRIPOS>MOLECULE
ZZF
   44    46     1     0     0
SMALL
No Charge or Current Charge


@<TRIPOS>ATOM
      1 C1           6.8620     2.0290     2.4880 c3         1 ZZF      -0.146400
      2 C2           6.1250     1.5090     1.2690 ca         1 ZZF       0.370300
      3 C3           5.8610     2.3440     0.1680 ca         1 ZZF      -0.163000
      4 C4           5.1690     1.8260    -0.9390 ca         1 ZZF      -0.069000
      5 C5           4.7590     0.4850    -0.8970 ca         1 ZZF       0.020100
      6 C6           5.0730    -0.2930     0.2480 ca         1 ZZF       0.370300
      7 N7           5.7400     0.2140     1.3130 nb         1 ZZF      -0.679000
      8 C8           4.6900    -1.7610     0.3580 c3         1 ZZF      -0.150400
      9 O9           4.0760    -0.0420    -1.9730 os         1 ZZF      -0.235200
     10 C10          2.7660    -0.4540    -1.8880 ca         1 ZZF       0.210100
     11 C11          2.2710    -1.3620    -2.8240 ca         1 ZZF      -0.230000
     12 C12          0.9380    -1.7760    -2.7220 ca         1 ZZF       0.404900
     13 N13          0.1040    -1.3280    -1.7610 nb         1 ZZF      -0.748000
     14 C14          0.5840    -0.4430    -0.8860 ca         1 ZZF       0.640900
     15 C15          1.8990     0.0180    -0.8930 ca         1 ZZF      -0.306000
     16 N16         -0.2810    -0.0300     0.0960 nu         1 ZZF      -0.938900
     17 C17         -1.6600    -0.1190     0.2900 ca         1 ZZF       0.378000
     18 C18         -2.1510    -0.0960     1.6040 ca         1 ZZF      -0.187000
     19 C19         -3.5320    -0.1600     1.8560 ca         1 ZZF       0.019000
     20 C20         -4.4370    -0.2340     0.7780 ca         1 ZZF      -0.369500
     21 C21         -3.9510    -0.2390    -0.5440 ca         1 ZZF       0.019000
     22 C22         -2.5680    -0.1760    -0.7810 ca         1 ZZF      -0.187000
     23 S23         -6.1990    -0.3160     1.0820 sy         1 ZZF       1.147600
     24 O24         -6.8870    -0.9440    -0.0460 o          1 ZZF      -0.534000
     25 O25         -6.4490    -0.6790     2.4740 o          1 ZZF      -0.534000
     26 N26         -6.5970     1.2650     1.0070 n8         1 ZZF      -0.993100
     27 H11C         6.1560     2.3130     3.2760 hc         1 ZZF       0.054700
     28 H12C         7.5390     1.2700     2.8980 hc         1 ZZF       0.054700
     29 H13C         7.4650     2.9110     2.2430 hc         1 ZZF       0.054700
     30 H3           6.1880     3.3810     0.1750 ha         1 ZZF       0.129000
     31 H4           4.9500     2.4480    -1.8050 ha         1 ZZF       0.135000
     32 H81C         4.8320    -2.2780    -0.5970 hc         1 ZZF       0.060033
     33 H82C         5.2960    -2.2840     1.1070 hc         1 ZZF       0.060033
     34 H83C         3.6380    -1.8670     0.6470 hc         1 ZZF       0.060033
     35 H11          2.9060    -1.7500    -3.6140 ha         1 ZZF       0.144000
     36 H15          2.2310     0.7340    -0.1500 ha         1 ZZF       0.134000
     37 H12          0.5230    -2.4910    -3.4320 h4         1 ZZF       0.025100
     38 H16          0.2130     0.3700     0.8870 hn         1 ZZF       0.498000
     39 H18         -1.4610    -0.0390     2.4400 ha         1 ZZF       0.135500
     40 H22         -2.2100    -0.1580    -1.8050 ha         1 ZZF       0.135500
     41 H19         -3.8870    -0.1510     2.8860 ha         1 ZZF       0.134000
     42 H21         -4.6370    -0.2850    -1.3890 ha         1 ZZF       0.134000
     43 H261        -5.6920     1.7120     1.1220 hn         1 ZZF       0.471500
     44 H262        -7.0500     1.3910     1.9090 hn         1 ZZF       0.471500
@<TRIPOS>BOND
     1     1     2 1   
     2     1    27 1   
     3     1    28 1   
     4     1    29 1   
     5     2     3 ar  
     6     2     7 ar  
     7     3     4 ar  
     8     3    30 1   
     9     4     5 ar  
    10     4    31 1   
    11     5     6 ar  
    12     5     9 1   
    13     6     7 ar  
    14     6     8 1   
    15     8    32 1   
    16     8    33 1   
    17     8    34 1   
    18     9    10 1   
    19    10    11 ar  
    20    10    15 ar  
    21    11    12 ar  
    22    11    35 1   
    23    12    13 ar  
    24    12    37 1   
    25    13    14 ar  
    26    14    15 ar  
    27    14    16 1   
    28    15    36 1   
    29    16    17 1   
    30    16    38 1   
    31    17    18 ar  
    32    17    22 ar  
    33    18    19 ar  
    34    18    39 1   
    35    19    20 ar  
    36    19    41 1   
    37    20    21 ar  
    38    20    23 1   
    39    21    22 ar  
    40    21    42 1   
    41    22    40 1   
    42    23    24 2   
    43    23    25 2   
    44    23    26 1   
    45    26    43 1   
    46    26    44 1   
@<TRIPOS>SUBSTRUCTURE
     1 ZZF         1 TEMP              0 ****  ****    0 ROOT
