@<TRIPOS>MOLECULE
ZZG
   60    63     1     0     0
SMALL
bcc


@<TRIPOS>ATOM
      1 C1           6.0250    -3.1930    -2.0340 c3         1 ZZG       0.123200
      2 O2           6.3050    -2.5280    -0.8190 os         1 ZZG      -0.301400
      3 C3           5.3640    -1.7260    -0.2910 ca         1 ZZG       0.185600
      4 C4           4.1180    -1.5070    -0.8640 ca         1 ZZG      -0.297500
      5 C5           3.1990    -0.6520    -0.2450 ca         1 ZZG       0.249600
      6 N6           1.9820    -0.5010    -0.8970 nu         1 ZZG      -0.747300
      7 C7           0.8780     0.2550    -0.6050 ca         1 ZZG       0.709200
      8 C8          -0.2180     0.1710    -1.4770 ca         1 ZZG      -0.340300
      9 C9          -1.3360     0.9240    -1.1970 ca         1 ZZG       0.220100
     10 O10         -2.3630     0.8430    -2.0730 os         1 ZZG      -0.224200
     11 C11         -3.6070     1.2690    -1.6950 ca         1 ZZG       0.019800
     12 C12         -4.1550     2.3460    -2.3730 ca         1 ZZG      -0.107000
     13 C13         -5.4110     2.8170    -2.0310 ca         1 ZZG      -0.171600
     14 C14         -6.0320     3.9750    -2.7450 c3         1 ZZG      -0.044800
     15 C15         -6.0680     2.1770    -0.9680 ca         1 ZZG       0.422600
     16 C16         -7.4140     2.6460    -0.5080 c3         1 ZZG      -0.145400
     17 N17         -5.5330     1.1470    -0.3340 nb         1 ZZG      -0.671000
     18 C18         -4.3390     0.6670    -0.6740 cp         1 ZZG       0.352300
     19 C19         -3.8570    -0.4950     0.1070 cp         1 ZZG       0.353300
     20 C20         -4.2000    -0.6160     1.4520 ca         1 ZZG      -0.201300
     21 C21         -3.7350    -1.7100     2.1610 ca         1 ZZG      -0.100000
     22 C22         -2.9500    -2.6480     1.5070 ca         1 ZZG      -0.235300
     23 C23         -2.6720    -2.4440     0.1640 ca         1 ZZG       0.402200
     24 N24         -3.1110    -1.3990    -0.5220 nb         1 ZZG      -0.656000
     25 C25         -1.3530     1.7460    -0.0680 ca         1 ZZG      -0.365300
     26 C26         -0.2210     1.7440     0.7170 ca         1 ZZG       0.470200
     27 N27          0.8720     1.0270     0.4750 nb         1 ZZG      -0.754000
     28 C28          3.5330    -0.0200     0.9510 ca         1 ZZG      -0.297500
     29 C29          4.7870    -0.2490     1.5160 ca         1 ZZG       0.185600
     30 O30          5.1940     0.3180     2.6660 os         1 ZZG      -0.301400
     31 C31          4.3020     1.1710     3.3550 c3         1 ZZG       0.123200
     32 C32          5.7080    -1.1040     0.9130 ca         1 ZZG      -0.009900
     33 O33          6.9190    -1.3410     1.4890 os         1 ZZG      -0.299900
     34 C34          7.9400    -0.4410     1.0840 c3         1 ZZG       0.123700
     35 H11C         5.1670    -3.8640    -1.9440 h1         1 ZZG       0.041200
     36 H12C         5.8380    -2.4910    -2.8500 h1         1 ZZG       0.041200
     37 H13C         6.9070    -3.7810    -2.2740 h1         1 ZZG       0.041200
     38 H4           3.8450    -1.9890    -1.7940 ha         1 ZZG       0.155500
     39 H6           1.8980    -1.0500    -1.7380 hn         1 ZZG       0.439800
     40 H28          2.8210     0.6380     1.4190 ha         1 ZZG       0.155500
     41 H8          -0.1970    -0.4800    -2.3430 ha         1 ZZG       0.157000
     42 H25         -2.1960     2.3700     0.1950 ha         1 ZZG       0.153000
     43 H12         -3.5870     2.8170    -3.1660 ha         1 ZZG       0.153000
     44 H141        -7.0060     3.7120    -3.1630 hc         1 ZZG       0.047700
     45 H142        -6.1950     4.8180    -2.0700 hc         1 ZZG       0.047700
     46 H143        -5.4020     4.3210    -3.5630 hc         1 ZZG       0.047700
     47 H161        -8.1510     2.5970    -1.3110 hc         1 ZZG       0.053033
     48 H162        -7.7670     2.0340     0.3190 hc         1 ZZG       0.053033
     49 H163        -7.3790     3.6860    -0.1760 hc         1 ZZG       0.053033
     50 H20         -4.8120     0.1370     1.9290 ha         1 ZZG       0.156000
     51 H21         -3.9780    -1.8260     3.2090 ha         1 ZZG       0.139000
     52 H22         -2.5610    -3.5170     2.0200 ha         1 ZZG       0.143000
     53 H23         -2.0680    -3.1590    -0.3840 h4         1 ZZG       0.020100
     54 H26         -0.1890     2.3680     1.6030 h4         1 ZZG       0.016100
     55 H311         4.0330     2.0490     2.7630 h1         1 ZZG       0.041200
     56 H312         3.3870     0.6530     3.6520 h1         1 ZZG       0.041200
     57 H313         4.8230     1.5000     4.2500 h1         1 ZZG       0.041200
     58 H341         8.8600    -0.7520     1.5760 h1         1 ZZG       0.031033
     59 H342         8.0980    -0.4660     0.0020 h1         1 ZZG       0.031033
     60 H343         7.7160     0.5870     1.3800 h1         1 ZZG       0.031033
@<TRIPOS>BOND
     1     1     2 1   
     2     1    35 1   
     3     1    36 1   
     4     1    37 1   
     5     2     3 1   
     6     3     4 ar  
     7     3    32 ar  
     8     4     5 ar  
     9     4    38 1   
    10     5     6 1   
    11     5    28 ar  
    12     6     7 1   
    13     6    39 1   
    14     7     8 ar  
    15     7    27 ar  
    16     8     9 ar  
    17     8    41 1   
    18     9    10 1   
    19     9    25 ar  
    20    10    11 1   
    21    11    12 ar  
    22    11    18 ar  
    23    12    13 ar  
    24    12    43 1   
    25    13    14 1   
    26    13    15 ar  
    27    14    44 1   
    28    14    45 1   
    29    14    46 1   
    30    15    16 1   
    31    15    17 ar  
    32    16    47 1   
    33    16    48 1   
    34    16    49 1   
    35    17    18 ar  
    36    18    19 1   
    37    19    20 ar  
    38    19    24 ar  
    39    20    21 ar  
    40    20    50 1   
    41    21    22 ar  
    42    21    51 1   
    43    22    23 ar  
    44    22    52 1   
    45    23    24 ar  
    46    23    53 1   
    47    25    26 ar  
    48    25    42 1   
    49    26    27 ar  
    50    26    54 1   
    51    28    29 ar  
    52    28    40 1   
    53    29    30 1   
    54    29    32 ar  
    55    30    31 1   
    56    31    55 1   
    57    31    56 1   
    58    31    57 1   
    59    32    33 1   
    60    33    34 1   
    61    34    58 1   
    62    34    59 1   
    63    34    60 1   
@<TRIPOS>SUBSTRUCTURE
     1 ZZG         1 TEMP              0 ****  ****    0 ROOT
