@<TRIPOS>MOLECULE
ZZG
   60    63     1     0     0
SMALL
No Charge or Current Charge


@<TRIPOS>ATOM
      1 C1           6.5440    -2.4040    -2.7060 c3         1 ZZG       0.146400
      2 O2           6.5450    -2.0660    -1.3080 os         1 ZZG      -0.324600
      3 C3           5.4380    -1.5360    -0.6630 ca         1 ZZG       0.185600
      4 C4           4.2340    -1.2990    -1.3530 ca         1 ZZG      -0.279500
      5 C5           3.1380    -0.7530    -0.6890 ca         1 ZZG       0.388000
      6 N6           1.9650    -0.5610    -1.4050 nu         1 ZZG      -0.940900
      7 C7           0.8970     0.2950    -1.2840 ca         1 ZZG       0.643900
      8 C8          -0.3140     0.0010    -1.9060 ca         1 ZZG      -0.257000
      9 C9          -1.3710     0.8980    -1.7620 ca         1 ZZG       0.220100
     10 O10         -2.5920     0.6040    -2.3260 os         1 ZZG      -0.224200
     11 C11         -3.7780     1.0800    -1.8070 ca         1 ZZG       0.085100
     12 C12         -4.6220     1.8370    -2.6340 ca         1 ZZG      -0.089000
     13 C13         -5.8040     2.3720    -2.0890 ca         1 ZZG      -0.106300
     14 C14         -6.7370     3.2030    -2.9660 c3         1 ZZG      -0.044800
     15 C15         -6.0860     2.1310    -0.7230 ca         1 ZZG       0.357300
     16 C16         -7.3300     2.6890    -0.0490 c3         1 ZZG      -0.145400
     17 N17         -5.2740     1.3990     0.0740 nb         1 ZZG      -0.671000
     18 C18         -4.1430     0.8440    -0.4430 cp         1 ZZG       0.287000
     19 C19         -3.3150    -0.0040     0.5030 cp         1 ZZG       0.288000
     20 C20         -3.0570     0.4340     1.8290 ca         1 ZZG      -0.118000
     21 C21         -2.2720    -0.3500     2.6900 ca         1 ZZG      -0.082000
     22 C22         -1.7700    -1.5660     2.2020 ca         1 ZZG      -0.152000
     23 C23         -2.0790    -1.9530     0.8880 ca         1 ZZG       0.336900
     24 N24         -2.8400    -1.2000     0.0620 nb         1 ZZG      -0.656000
     25 C25         -1.1540     2.0750    -1.0330 ca         1 ZZG      -0.282000
     26 C26          0.1080     2.2910    -0.4690 ca         1 ZZG       0.404900
     27 N27          1.1240     1.4140    -0.5910 nb         1 ZZG      -0.754000
     28 C28          3.2190    -0.4730     0.6770 ca         1 ZZG      -0.279500
     29 C29          4.4120    -0.7000     1.3970 ca         1 ZZG       0.185600
     30 O30          4.4700    -0.4090     2.7500 os         1 ZZG      -0.324600
     31 C31          3.3650     0.1430     3.4870 c3         1 ZZG       0.146400
     32 C32          5.5460    -1.2370     0.7160 ca         1 ZZG      -0.009900
     33 O33          6.7800    -1.5050     1.3140 os         1 ZZG      -0.323100
     34 C34          7.1010    -1.2630     2.6950 c3         1 ZZG       0.146900
     35 H11C         5.7850    -3.1670    -2.9230 h1         1 ZZG       0.041200
     36 H12C         6.3410    -1.5180    -3.3210 h1         1 ZZG       0.041200
     37 H13C         7.5220    -2.8040    -3.0000 h1         1 ZZG       0.041200
     38 H4           4.1400    -1.5230    -2.4100 ha         1 ZZG       0.137500
     39 H6           1.8870    -1.1540    -2.2240 hn         1 ZZG       0.495000
     40 H28          2.3370    -0.0870     1.1720 ha         1 ZZG       0.137500
     41 H8          -0.4450    -0.9200    -2.4630 ha         1 ZZG       0.139000
     42 H25         -1.9360     2.8170    -0.9030 ha         1 ZZG       0.135000
     43 H12         -4.3510     2.0130    -3.6720 ha         1 ZZG       0.135000
     44 H141        -7.7390     2.7610    -3.0080 hc         1 ZZG       0.047700
     45 H142        -6.8340     4.2250    -2.5810 hc         1 ZZG       0.047700
     46 H143        -6.3690     3.2760    -3.9970 hc         1 ZZG       0.047700
     47 H161        -8.2380     2.3130    -0.5350 hc         1 ZZG       0.053033
     48 H162        -7.3850     2.4090     1.0100 hc         1 ZZG       0.053033
     49 H163        -7.3450     3.7830    -0.1020 hc         1 ZZG       0.053033
     50 H20         -3.4550     1.3860     2.1710 ha         1 ZZG       0.138000
     51 H21         -2.0580    -0.0220     3.7060 ha         1 ZZG       0.121000
     52 H22         -1.1560    -2.2060     2.8290 ha         1 ZZG       0.125000
     53 H23         -1.7100    -2.8960     0.4860 h4         1 ZZG       0.020100
     54 H26          0.3130     3.1960     0.1020 h4         1 ZZG       0.016100
     55 H311         3.0640     1.1140     3.0710 h1         1 ZZG       0.041200
     56 H312         2.5020    -0.5350     3.4630 h1         1 ZZG       0.041200
     57 H313         3.6470     0.2960     4.5350 h1         1 ZZG       0.041200
     58 H341         8.1400    -1.5530     2.8960 h1         1 ZZG       0.031033
     59 H342         6.9970    -0.1990     2.9420 h1         1 ZZG       0.031033
     60 H343         6.4560    -1.8540     3.3570 h1         1 ZZG       0.031033
@<TRIPOS>BOND
     1     1     2 1   
     2     1    35 1   
     3     1    36 1   
     4     1    37 1   
     5     2     3 1   
     6     3     4 ar  
     7     3    32 ar  
     8     4     5 ar  
     9     4    38 1   
    10     5     6 1   
    11     5    28 ar  
    12     6     7 1   
    13     6    39 1   
    14     7     8 ar  
    15     7    27 ar  
    16     8     9 ar  
    17     8    41 1   
    18     9    10 1   
    19     9    25 ar  
    20    10    11 1   
    21    11    12 ar  
    22    11    18 ar  
    23    12    13 ar  
    24    12    43 1   
    25    13    14 1   
    26    13    15 ar  
    27    14    44 1   
    28    14    45 1   
    29    14    46 1   
    30    15    16 1   
    31    15    17 ar  
    32    16    47 1   
    33    16    48 1   
    34    16    49 1   
    35    17    18 ar  
    36    18    19 1   
    37    19    20 ar  
    38    19    24 ar  
    39    20    21 ar  
    40    20    50 1   
    41    21    22 ar  
    42    21    51 1   
    43    22    23 ar  
    44    22    52 1   
    45    23    24 ar  
    46    23    53 1   
    47    25    26 ar  
    48    25    42 1   
    49    26    27 ar  
    50    26    54 1   
    51    28    29 ar  
    52    28    40 1   
    53    29    30 1   
    54    29    32 ar  
    55    30    31 1   
    56    31    55 1   
    57    31    56 1   
    58    31    57 1   
    59    32    33 1   
    60    33    34 1   
    61    34    58 1   
    62    34    59 1   
    63    34    60 1   
@<TRIPOS>SUBSTRUCTURE
     1 ZZG         1 TEMP              0 ****  ****    0 ROOT
