@<TRIPOS>MOLECULE
ZZH
   44    46     1     0     0
SMALL
abcg2


@<TRIPOS>ATOM
      1 CAK         -3.6290    -1.9930     1.1590 ca         1 ZZH      -0.105500
      2 CAG         -3.4390    -3.3690     1.1490 ca         1 ZZH      -0.120000
      3 CAD         -3.4130    -4.0610    -0.0550 ca         1 ZZH      -0.133000
      4 CAH         -3.5820    -3.3670    -1.2460 ca         1 ZZH      -0.120000
      5 CAL         -3.7760    -1.9930    -1.2300 ca         1 ZZH      -0.105500
      6 CAW         -3.8010    -1.2880    -0.0290 ca         1 ZZH      -0.049300
      7 CAR         -3.9780     0.2050    -0.0250 c3         1 ZZH      -0.026100
      8 CAY         -2.6780     0.9470    -0.3270 c3         1 ZZH       0.023300
      9 CAT         -2.9310     2.4740    -0.3360 c          1 ZZH       0.701000
     10 OAB         -3.4680     2.9040    -1.3750 o          1 ZZH      -0.709000
     11 OAA         -2.6160     3.1110     0.6820 o          1 ZZH      -0.709000
     12 OAS         -1.7490     0.5490     0.6620 os         1 ZZH      -0.331100
     13 CAX         -0.4540     0.8700     0.5090 ca         1 ZZH       0.210100
     14 CAP          0.4090     0.4520     1.5270 ca         1 ZZH      -0.177500
     15 CAN          1.7650     0.7090     1.4480 ca         1 ZZH      -0.071000
     16 CAO          0.0780     1.5490    -0.5830 ca         1 ZZH      -0.177500
     17 CAM          1.4460     1.7990    -0.6430 ca         1 ZZH      -0.071000
     18 CAV          2.3120     1.3900     0.3600 ca         1 ZZH      -0.161300
     19 CAQ          3.7960     1.6440     0.2720 c3         1 ZZH       0.028200
     20 CAU          4.5760     0.3880    -0.0260 ca         1 ZZH      -0.058300
     21 CAI          4.4560    -0.2400    -1.2660 ca         1 ZZH      -0.106000
     22 CAE          5.1600    -1.4010    -1.5460 ca         1 ZZH      -0.114500
     23 CAC          5.9960    -1.9610    -0.5850 ca         1 ZZH      -0.125000
     24 CAF          6.1220    -1.3460     0.6520 ca         1 ZZH      -0.114500
     25 CAJ          5.4170    -0.1790     0.9270 ca         1 ZZH      -0.106000
     26 HAK         -3.6500    -1.4600     2.1020 ha         1 ZZH       0.115000
     27 HAG         -3.3090    -3.9020     2.0830 ha         1 ZZH       0.096500
     28 HAD         -3.2670    -5.1330    -0.0640 ha         1 ZZH       0.094000
     29 HAH         -3.5660    -3.8990    -2.1900 ha         1 ZZH       0.096500
     30 HAL         -3.9130    -1.4600    -2.1650 ha         1 ZZH       0.115000
     31 HAR         -4.7080     0.4980    -0.7820 hc         1 ZZH       0.064200
     32 HARA        -4.3690     0.5360     0.9420 hc         1 ZZH       0.064200
     33 HAY         -2.3260     0.6320    -1.3190 h1         1 ZZH       0.030700
     34 HAP          0.0040    -0.0760     2.3810 ha         1 ZZH       0.126000
     35 HAN          2.4090     0.3710     2.2520 ha         1 ZZH       0.092000
     36 HAO         -0.5440     1.8980    -1.3970 ha         1 ZZH       0.126000
     37 HAM          1.8370     2.3310    -1.5020 ha         1 ZZH       0.092000
     38 HAQ          3.9860     2.3860    -0.5080 hc         1 ZZH       0.043700
     39 HAQA         4.1550     2.0790     1.2070 hc         1 ZZH       0.043700
     40 HAI          3.8020     0.1850    -2.0190 ha         1 ZZH       0.112000
     41 HAE          5.0580    -1.8710    -2.5160 ha         1 ZZH       0.102500
     42 HAC          6.5440    -2.8690    -0.8020 ha         1 ZZH       0.101000
     43 HAF          6.7710    -1.7720     1.4060 ha         1 ZZH       0.102500
     44 HAJ          5.5240     0.2950     1.8950 ha         1 ZZH       0.112000
@<TRIPOS>BOND
     1     1     2 ar  
     2     1     6 ar  
     3     1    26 1   
     4     2     3 ar  
     5     2    27 1   
     6     3     4 ar  
     7     3    28 1   
     8     4     5 ar  
     9     4    29 1   
    10     5     6 ar  
    11     5    30 1   
    12     6     7 1   
    13     7     8 1   
    14     7    31 1   
    15     7    32 1   
    16     8     9 1   
    17     8    12 1   
    18     8    33 1   
    19     9    10 1   
    20     9    11 1   
    21    12    13 1   
    22    13    14 ar  
    23    13    16 ar  
    24    14    15 ar  
    25    14    34 1   
    26    15    18 ar  
    27    15    35 1   
    28    16    17 ar  
    29    16    36 1   
    30    17    18 ar  
    31    17    37 1   
    32    18    19 1   
    33    19    20 1   
    34    19    38 1   
    35    19    39 1   
    36    20    21 ar  
    37    20    25 ar  
    38    21    22 ar  
    39    21    40 1   
    40    22    23 ar  
    41    22    41 1   
    42    23    24 ar  
    43    23    42 1   
    44    24    25 ar  
    45    24    43 1   
    46    25    44 1   
@<TRIPOS>SUBSTRUCTURE
     1 ZZH         1 TEMP              0 ****  ****    0 ROOT
