@<TRIPOS>MOLECULE
ZZH
   44    46     1     0     0
SMALL
No Charge or Current Charge


@<TRIPOS>ATOM
      1 CAK         -3.8300    -1.9830     1.2800 ca         1 ZZH      -0.105500
      2 CAG         -3.6730    -3.3780     1.3490 ca         1 ZZH      -0.120000
      3 CAD         -3.5390    -4.1300     0.1700 ca         1 ZZH      -0.133000
      4 CAH         -3.5630    -3.4860    -1.0780 ca         1 ZZH      -0.120000
      5 CAL         -3.7200    -2.0910    -1.1480 ca         1 ZZH      -0.105500
      6 CAW         -3.8550    -1.3300     0.0310 ca         1 ZZH      -0.049300
      7 CAR         -4.0240     0.1840    -0.0490 c3         1 ZZH      -0.026100
      8 CAY         -2.7100     0.9210    -0.4000 c3         1 ZZH       0.023300
      9 CAT         -2.9700     2.4540    -0.5950 c          1 ZZH       0.701000
     10 OAB         -3.5020     2.8090    -1.6390 o          1 ZZH      -0.709000
     11 OAA         -2.5970     3.2460     0.2610 o          1 ZZH      -0.709000
     12 OAS         -1.7650     0.6250     0.6630 os         1 ZZH      -0.331100
     13 CAX         -0.4130     0.8970     0.5650 ca         1 ZZH       0.210100
     14 CAP          0.3880     0.6370     1.6890 ca         1 ZZH      -0.177500
     15 CAN          1.7710     0.8790     1.6510 ca         1 ZZH      -0.071000
     16 CAO          0.1860     1.4000    -0.6110 ca         1 ZZH      -0.177500
     17 CAM          1.5700     1.6430    -0.6480 ca         1 ZZH      -0.071000
     18 CAV          2.3690     1.3860     0.4820 ca         1 ZZH      -0.161300
     19 CAQ          3.8700     1.6420     0.4370 c3         1 ZZH       0.028200
     20 CAU          4.6340     0.4110    -0.0340 ca         1 ZZH      -0.058300
     21 CAI          4.8840     0.2110    -1.4060 ca         1 ZZH      -0.106000
     22 CAE          5.5860    -0.9280    -1.8410 ca         1 ZZH      -0.114500
     23 CAC          6.0390    -1.8740    -0.9060 ca         1 ZZH      -0.125000
     24 CAF          5.7910    -1.6810     0.4630 ca         1 ZZH      -0.114500
     25 CAJ          5.0900    -0.5430     0.8980 ca         1 ZZH      -0.106000
     26 HAK         -3.9290    -1.4080     2.1980 ha         1 ZZH       0.115000
     27 HAG         -3.6540    -3.8750     2.3160 ha         1 ZZH       0.096500
     28 HAD         -3.4170    -5.2090     0.2230 ha         1 ZZH       0.094000
     29 HAH         -3.4590    -4.0670    -1.9920 ha         1 ZZH       0.096500
     30 HAL         -3.7370    -1.5990    -2.1180 ha         1 ZZH       0.115000
     31 HAR         -4.7780     0.4230    -0.8100 hc         1 ZZH       0.064200
     32 HARA        -4.4160     0.5810     0.8950 hc         1 ZZH       0.064200
     33 HAY         -2.3460     0.5180    -1.3540 h1         1 ZZH       0.030700
     34 HAP         -0.0690     0.2430     2.5930 ha         1 ZZH       0.126000
     35 HAN          2.3780     0.6700     2.5300 ha         1 ZZH       0.092000
     36 HAO         -0.4010     1.6050    -1.5000 ha         1 ZZH       0.126000
     37 HAM          2.0230     2.0280    -1.5590 ha         1 ZZH       0.092000
     38 HAQ          4.0860     2.4910    -0.2240 hc         1 ZZH       0.043700
     39 HAQA         4.2290     1.9490     1.4270 hc         1 ZZH       0.043700
     40 HAI          4.5340     0.9370    -2.1360 ha         1 ZZH       0.112000
     41 HAE          5.7760    -1.0770    -2.9010 ha         1 ZZH       0.102500
     42 HAC          6.5820    -2.7550    -1.2420 ha         1 ZZH       0.101000
     43 HAF          6.1400    -2.4130     1.1880 ha         1 ZZH       0.102500
     44 HAJ          4.8990    -0.4020     1.9600 ha         1 ZZH       0.112000
@<TRIPOS>BOND
     1     1     2 ar  
     2     1     6 ar  
     3     1    26 1   
     4     2     3 ar  
     5     2    27 1   
     6     3     4 ar  
     7     3    28 1   
     8     4     5 ar  
     9     4    29 1   
    10     5     6 ar  
    11     5    30 1   
    12     6     7 1   
    13     7     8 1   
    14     7    31 1   
    15     7    32 1   
    16     8     9 1   
    17     8    12 1   
    18     8    33 1   
    19     9    10 1   
    20     9    11 1   
    21    12    13 1   
    22    13    14 ar  
    23    13    16 ar  
    24    14    15 ar  
    25    14    34 1   
    26    15    18 ar  
    27    15    35 1   
    28    16    17 ar  
    29    16    36 1   
    30    17    18 ar  
    31    17    37 1   
    32    18    19 1   
    33    19    20 1   
    34    19    38 1   
    35    19    39 1   
    36    20    21 ar  
    37    20    25 ar  
    38    21    22 ar  
    39    21    40 1   
    40    22    23 ar  
    41    22    41 1   
    42    23    24 ar  
    43    23    42 1   
    44    24    25 ar  
    45    24    43 1   
    46    25    44 1   
@<TRIPOS>SUBSTRUCTURE
     1 ZZH         1 TEMP              0 ****  ****    0 ROOT
