@<TRIPOS>MOLECULE
ZZI
   36    35     1     0     0
SMALL
abcg2


@<TRIPOS>ATOM
      1 CAA          4.8070    -1.1120    -0.4980 c3         1 ZZI      -0.089600
      2 CAB          3.5010    -0.8860     0.2520 c3         1 ZZI      -0.097900
      3 CAC          2.4930    -0.1340    -0.6070 c3         1 ZZI       0.100000
      4 NAH          1.2390     0.1490     0.0790 n          1 ZZI      -0.395800
      5 CAG          1.1460     1.4480     0.7290 c3         1 ZZI       0.100000
      6 CAF          0.6350     2.5510    -0.1880 c3         1 ZZI      -0.097900
      7 CAE          0.6310     3.9040     0.5070 c3         1 ZZI      -0.089600
      8 CAI          0.2810    -0.7910     0.0830 c          1 ZZI       0.586100
      9 OAD          0.4530    -1.9050    -0.4040 o          1 ZZI      -0.611100
     10 CAJ         -1.0810    -0.5120     0.7250 c3         1 ZZI       0.066300
     11 OAN         -1.2820    -1.4100     1.7870 oh         1 ZZI      -0.706000
     12 CAK         -2.1610    -0.6450    -0.3620 c3         1 ZZI       0.139300
     13 OAO         -1.8080     0.1130    -1.4980 oh         1 ZZI      -0.634000
     14 CAL         -3.5280    -0.2750     0.1810 c3         1 ZZI       0.129600
     15 OAM         -4.4940    -0.5330    -0.8090 oh         1 ZZI      -0.708000
     16 HAA1         5.5250    -1.6580     0.1130 hc         1 ZZI       0.034867
     17 HAA2         4.6430    -1.6890    -1.4100 hc         1 ZZI       0.034867
     18 HAA3         5.2680    -0.1660    -0.7860 hc         1 ZZI       0.034867
     19 HAB1         3.0750    -1.8430     0.5560 hc         1 ZZI       0.047200
     20 HAB2         3.6960    -0.3230     1.1690 hc         1 ZZI       0.047200
     21 HAC1         2.9180     0.8220    -0.9210 h1         1 ZZI       0.052950
     22 HAC2         2.2870    -0.6960    -1.5180 h1         1 ZZI       0.052950
     23 HAG1         0.5310     1.3840     1.6260 h1         1 ZZI       0.052950
     24 HAG2         2.1460     1.7060     1.0840 h1         1 ZZI       0.052950
     25 HAF1         1.2600     2.5920    -1.0840 hc         1 ZZI       0.047200
     26 HAF2        -0.3720     2.3020    -0.5280 hc         1 ZZI       0.047200
     27 HAE1        -0.0060     3.8930     1.3940 hc         1 ZZI       0.034867
     28 HAE2         1.6350     4.1890     0.8250 hc         1 ZZI       0.034867
     29 HAE3         0.2590     4.6840    -0.1550 hc         1 ZZI       0.034867
     30 HAJ         -1.1490     0.4860     1.1620 h1         1 ZZI       0.075700
     31 HAN         -1.1900    -2.3060     1.4410 ho         1 ZZI       0.524000
     32 HAK         -2.1830    -1.6890    -0.6940 h1         1 ZZI       0.103700
     33 HAO         -2.0350     1.0370    -1.3480 ho         1 ZZI       0.436000
     34 HAL1        -3.7160    -0.8530     1.0930 h1         1 ZZI       0.027200
     35 HAL2        -3.5220     0.7860     0.4760 h1         1 ZZI       0.027200
     36 HAM         -5.3560    -0.3080    -0.4500 ho         1 ZZI       0.505000
@<TRIPOS>BOND
     1     1     2 1   
     2     1    16 1   
     3     1    17 1   
     4     1    18 1   
     5     2     3 1   
     6     2    19 1   
     7     2    20 1   
     8     3     4 1   
     9     3    21 1   
    10     3    22 1   
    11     4     5 1   
    12     4     8 1   
    13     5     6 1   
    14     5    23 1   
    15     5    24 1   
    16     6     7 1   
    17     6    25 1   
    18     6    26 1   
    19     7    27 1   
    20     7    28 1   
    21     7    29 1   
    22     8     9 2   
    23     8    10 1   
    24    10    11 1   
    25    10    12 1   
    26    10    30 1   
    27    11    31 1   
    28    12    13 1   
    29    12    14 1   
    30    12    32 1   
    31    13    33 1   
    32    14    15 1   
    33    14    34 1   
    34    14    35 1   
    35    15    36 1   
@<TRIPOS>SUBSTRUCTURE
     1 ZZI         1 TEMP              0 ****  ****    0 ROOT
