@<TRIPOS>MOLECULE
ZZI
   36    35     1     0     0
SMALL
No Charge or Current Charge


@<TRIPOS>ATOM
      1 CAA          4.9330    -1.1890    -0.4670 c3         1 ZZI      -0.089600
      2 CAB          3.5900    -0.8620     0.2130 c3         1 ZZI      -0.097900
      3 CAC          2.6140    -0.1090    -0.7160 c3         1 ZZI       0.100000
      4 NAH          1.3210     0.2100    -0.0640 n          1 ZZI      -0.395800
      5 CAG          1.2800     1.4310     0.7780 c3         1 ZZI       0.100000
      6 CAF          0.9480     2.7050    -0.0270 c3         1 ZZI      -0.097900
      7 CAE          0.8820     3.9690     0.8510 c3         1 ZZI      -0.089600
      8 CAI          0.2060    -0.6610    -0.2050 c          1 ZZI       0.586100
      9 OAD          0.3330    -1.7300    -0.7950 o          1 ZZI      -0.611100
     10 CAJ         -1.1710    -0.2640     0.4410 c3         1 ZZI       0.066300
     11 OAN         -1.2770    -0.7620     1.8080 oh         1 ZZI      -0.706000
     12 CAK         -2.3790    -0.7610    -0.4110 c3         1 ZZI       0.139300
     13 OAO         -2.3270    -0.1790    -1.7240 oh         1 ZZI      -0.634000
     14 CAL         -3.7580    -0.3940     0.2040 c3         1 ZZI       0.129600
     15 OAM         -4.8130    -0.7360    -0.7160 oh         1 ZZI      -0.708000
     16 HAA1         5.5920    -1.7250     0.2260 hc         1 ZZI       0.034867
     17 HAA2         4.7770    -1.8210    -1.3500 hc         1 ZZI       0.034867
     18 HAA3         5.4420    -0.2700    -0.7840 hc         1 ZZI       0.034867
     19 HAB1         3.1210    -1.7960     0.5460 hc         1 ZZI       0.047200
     20 HAB2         3.7810    -0.2610     1.1100 hc         1 ZZI       0.047200
     21 HAC1         3.0860     0.8290    -1.0380 h1         1 ZZI       0.052950
     22 HAC2         2.4380    -0.7030    -1.6220 h1         1 ZZI       0.052950
     23 HAG1         0.5610     1.3060     1.5970 h1         1 ZZI       0.052950
     24 HAG2         2.2620     1.5650     1.2490 h1         1 ZZI       0.052950
     25 HAF1         1.7070     2.8500    -0.8060 hc         1 ZZI       0.047200
     26 HAF2        -0.0120     2.5750    -0.5400 hc         1 ZZI       0.047200
     27 HAE1         0.1050     3.8670     1.6190 hc         1 ZZI       0.034867
     28 HAE2         1.8420     4.1450     1.3510 hc         1 ZZI       0.034867
     29 HAE3         0.6470     4.8480     0.2400 hc         1 ZZI       0.034867
     30 HAJ         -1.2330     0.8300     0.4430 h1         1 ZZI       0.075700
     31 HAN         -1.0220    -1.7160     1.8060 ho         1 ZZI       0.524000
     32 HAK         -2.3280    -1.8580    -0.4840 h1         1 ZZI       0.103700
     33 HAO         -3.2610    -0.2130    -2.0350 ho         1 ZZI       0.436000
     34 HAL1        -3.8890    -0.9360     1.1500 h1         1 ZZI       0.027200
     35 HAL2        -3.7810     0.6810     0.4290 h1         1 ZZI       0.027200
     36 HAM         -5.6680    -0.5550    -0.2580 ho         1 ZZI       0.505000
@<TRIPOS>BOND
     1     1     2 1   
     2     1    16 1   
     3     1    17 1   
     4     1    18 1   
     5     2     3 1   
     6     2    19 1   
     7     2    20 1   
     8     3     4 1   
     9     3    21 1   
    10     3    22 1   
    11     4     5 1   
    12     4     8 1   
    13     5     6 1   
    14     5    23 1   
    15     5    24 1   
    16     6     7 1   
    17     6    25 1   
    18     6    26 1   
    19     7    27 1   
    20     7    28 1   
    21     7    29 1   
    22     8     9 2   
    23     8    10 1   
    24    10    11 1   
    25    10    12 1   
    26    10    30 1   
    27    11    31 1   
    28    12    13 1   
    29    12    14 1   
    30    12    32 1   
    31    13    33 1   
    32    14    15 1   
    33    14    34 1   
    34    14    35 1   
    35    15    36 1   
@<TRIPOS>SUBSTRUCTURE
     1 ZZI         1 TEMP              0 ****  ****    0 ROOT
