@<TRIPOS>MOLECULE
ZZJ
   17    16     1     0     0
SMALL
No Charge or Current Charge


@<TRIPOS>ATOM
      1 N           12.2950    -6.3270    46.6880 n7         1 ZZJ      -0.885400
      2 CA          13.0780    -5.3140    45.8960 c3         1 ZZJ       0.087500
      3 C           13.7670    -4.1990    46.7680 c          1 ZZJ       0.603100
      4 O           13.6520    -2.9960    46.5800 o          1 ZZJ      -0.617100
      5 CB          12.2000    -4.7380    44.7570 c3         1 ZZJ      -0.107100
      6 CM          11.1840    -5.8150    47.5240 c3         1 ZZJ       0.143100
      7 NXT         14.5270    -4.6480    47.7920 nt         1 ZZJ      -0.599000
      8 H           11.9130    -7.0280    46.0370 hn         1 ZZJ       0.420000
      9 HA          13.9130    -5.8370    45.4090 h1         1 ZZJ       0.069700
     10 HM1C        11.5410    -5.0670    48.2440 h1         1 ZZJ       0.034367
     11 HM2C        10.4010    -5.3540    46.9080 h1         1 ZZJ       0.034367
     12 HM3C        10.7240    -6.6350    48.0920 h1         1 ZZJ       0.034367
     13 HB1C        11.3850    -4.1200    45.1540 hc         1 ZZJ       0.045700
     14 HB2C        12.8040    -4.1110    44.0900 hc         1 ZZJ       0.045700
     15 HB3C        11.7630    -5.5430    44.1540 hc         1 ZZJ       0.045700
     16 HXT1        14.5710    -5.6410    47.9690 hn         1 ZZJ       0.322500
     17 HXT2        14.9860    -3.9890    48.4010 hn         1 ZZJ       0.322500
@<TRIPOS>BOND
     1     1     2 1   
     2     1     6 1   
     3     1     8 1   
     4     2     3 1   
     5     2     5 1   
     6     2     9 1   
     7     3     4 2   
     8     3     7 1   
     9     5    13 1   
    10     5    14 1   
    11     5    15 1   
    12     6    10 1   
    13     6    11 1   
    14     6    12 1   
    15     7    16 1   
    16     7    17 1   
@<TRIPOS>SUBSTRUCTURE
     1 ZZJ         1 TEMP              0 ****  ****    0 ROOT
