@<TRIPOS>MOLECULE
ZZJ
   17    16     1     0     0
SMALL
bcc


@<TRIPOS>ATOM
      1 N           12.4740    -6.2730    46.7490 n7         1 ZZJ      -0.830200
      2 CA          13.0680    -5.2860    45.8620 c3         1 ZZJ       0.087500
      3 C           13.8680    -4.2490    46.6590 c          1 ZZJ       0.670100
      4 O           14.1080    -3.1360    46.2120 o          1 ZZJ      -0.617100
      5 CB          12.1160    -4.6190    44.8710 c3         1 ZZJ      -0.107100
      6 CM          11.2620    -5.8540    47.4280 c3         1 ZZJ       0.143100
      7 NXT         14.3200    -4.6870    47.8400 nt         1 ZZJ      -0.666000
      8 H           12.2970    -7.1220    46.2320 hn         1 ZZJ       0.364800
      9 HA          13.8220    -5.8270    45.2790 h1         1 ZZJ       0.069700
     10 HM1C        11.4600    -4.9750    48.0440 h1         1 ZZJ       0.034367
     11 HM2C        10.4230    -5.6130    46.7660 h1         1 ZZJ       0.034367
     12 HM3C        10.9360    -6.6500    48.0980 h1         1 ZZJ       0.034367
     13 HB1C        11.3980    -3.9620    45.3610 hc         1 ZZJ       0.045700
     14 HB2C        12.6630    -4.0260    44.1410 hc         1 ZZJ       0.045700
     15 HB3C        11.5580    -5.3820    44.3260 hc         1 ZZJ       0.045700
     16 HXT1        14.0550    -5.6040    48.1620 hn         1 ZZJ       0.322500
     17 HXT2        14.8770    -4.0950    48.4330 hn         1 ZZJ       0.322500
@<TRIPOS>BOND
     1     1     2 1   
     2     1     6 1   
     3     1     8 1   
     4     2     3 1   
     5     2     5 1   
     6     2     9 1   
     7     3     4 2   
     8     3     7 1   
     9     5    13 1   
    10     5    14 1   
    11     5    15 1   
    12     6    10 1   
    13     6    11 1   
    14     6    12 1   
    15     7    16 1   
    16     7    17 1   
@<TRIPOS>SUBSTRUCTURE
     1 ZZJ         1 TEMP              0 ****  ****    0 ROOT
