@<TRIPOS>MOLECULE
ZZK
   40    43     1     0     0
SMALL
abcg2


@<TRIPOS>ATOM
      1 N01          6.4920     1.8840    -1.2010 nt         1 ZZK      -0.604000
      2 C02          6.1000     1.2830    -0.0680 c          1 ZZK       0.616700
      3 O03          6.8140     1.2020     0.9230 o          1 ZZK      -0.603100
      4 C04          4.7180     0.7090    -0.0660 ca         1 ZZK      -0.153600
      5 C05          4.4190    -0.2920     0.8550 ca         1 ZZK      -0.072500
      6 C06          3.1530    -0.8480     0.9100 ca         1 ZZK      -0.116500
      7 C07          2.1400    -0.4020     0.0590 cp         1 ZZK      -0.006000
      8 C08          0.7680    -0.9390     0.1450 cp         1 ZZK      -0.167000
      9 C09         -0.3080    -0.0780     0.2500 ca         1 ZZK      -0.013000
     10 C10         -1.6170    -0.5530     0.3440 cp         1 ZZK      -0.143000
     11 C11         -2.7570     0.3640     0.4870 cp         1 ZZK       0.001000
     12 C12         -2.6810     1.5230     1.2840 ca         1 ZZK      -0.109000
     13 C13         -3.7410     2.4040     1.4040 ca         1 ZZK      -0.108000
     14 C14         -4.9510     2.1880     0.7350 ca         1 ZZK      -0.097000
     15 C15         -5.0220     1.0580    -0.0420 ca         1 ZZK       0.055100
     16 O16         -6.0460     0.6380    -0.8260 os         1 ZZK      -0.344100
     17 C17         -5.6930    -0.6680    -1.2580 c5         1 ZZK       0.370600
     18 O18         -4.2980    -0.8100    -1.0340 os         1 ZZK      -0.343100
     19 C19         -3.9600     0.1760    -0.1640 ca         1 ZZK       0.052100
     20 C20         -1.7650    -1.9340     0.3320 ca         1 ZZK       0.420900
     21 N21         -0.7600    -2.7860     0.2120 nb         1 ZZK      -0.751000
     22 C22          0.4850    -2.3250     0.1090 ca         1 ZZK       0.619900
     23 N23          1.4680    -3.2580    -0.0110 nv         1 ZZK      -1.053900
     24 C24          2.4390     0.6120    -0.8510 ca         1 ZZK      -0.116500
     25 C25          3.7110     1.1590    -0.9150 ca         1 ZZK      -0.072500
     26 H011         7.4140     2.2850    -1.2590 hn         1 ZZK       0.314000
     27 H012         5.9660     1.8280    -2.0550 hn         1 ZZK       0.314000
     28 H05          5.1830    -0.6420     1.5360 ha         1 ZZK       0.124500
     29 H25          3.8900     1.9550    -1.6260 ha         1 ZZK       0.124500
     30 H06          2.9500    -1.6210     1.6400 ha         1 ZZK       0.124500
     31 H24          1.6730     0.9770    -1.5220 ha         1 ZZK       0.124500
     32 H09         -0.1250     0.9910     0.2640 ha         1 ZZK       0.121000
     33 H20         -2.7480    -2.3820     0.4360 h4         1 ZZK       0.027100
     34 H12         -1.7700     1.7160     1.8360 ha         1 ZZK       0.121000
     35 H13         -3.6370     3.2750     2.0380 ha         1 ZZK       0.121000
     36 H14         -5.7820     2.8740     0.8240 ha         1 ZZK       0.135000
     37 H171        -6.2410    -1.4150    -0.6730 h2         1 ZZK       0.064700
     38 H172        -5.9090    -0.7780    -2.3200 h2         1 ZZK       0.064700
     39 H231         2.3450    -2.9860    -0.4240 hn         1 ZZK       0.477500
     40 H232         1.1630    -4.1860    -0.2560 hn         1 ZZK       0.477500
@<TRIPOS>BOND
     1     1     2 1   
     2     1    26 1   
     3     1    27 1   
     4     2     3 2   
     5     2     4 1   
     6     4     5 ar  
     7     4    25 ar  
     8     5     6 ar  
     9     5    28 1   
    10     6     7 ar  
    11     6    30 1   
    12     7     8 1   
    13     7    24 ar  
    14     8     9 ar  
    15     8    22 ar  
    16     9    10 ar  
    17     9    32 1   
    18    10    11 1   
    19    10    20 ar  
    20    11    12 ar  
    21    11    19 ar  
    22    12    13 ar  
    23    12    34 1   
    24    13    14 ar  
    25    13    35 1   
    26    14    15 ar  
    27    14    36 1   
    28    15    16 1   
    29    15    19 ar  
    30    16    17 1   
    31    17    18 1   
    32    17    37 1   
    33    17    38 1   
    34    18    19 1   
    35    20    21 ar  
    36    20    33 1   
    37    21    22 ar  
    38    22    23 1   
    39    23    39 1   
    40    23    40 1   
    41    24    25 ar  
    42    24    31 1   
    43    25    29 1   
@<TRIPOS>SUBSTRUCTURE
     1 ZZK         1 TEMP              0 ****  ****    0 ROOT
