@<TRIPOS>MOLECULE
ZZK
   40    43     1     0     0
SMALL
No Charge or Current Charge


@<TRIPOS>ATOM
      1 N01          6.5370     2.1330    -1.0860 nt         1 ZZK      -0.604000
      2 C02          6.2700     1.1400    -0.2110 c          1 ZZK       0.616700
      3 O03          7.1770     0.6990     0.4750 o          1 ZZK      -0.603100
      4 C04          4.8500     0.6200    -0.1230 ca         1 ZZK      -0.153600
      5 C05          4.5410    -0.4170     0.7850 ca         1 ZZK      -0.072500
      6 C06          3.2320    -0.9180     0.8870 ca         1 ZZK      -0.116500
      7 C07          2.1870    -0.4060     0.0830 cp         1 ZZK      -0.006000
      8 C08          0.7880    -0.9230     0.1930 cp         1 ZZK      -0.167000
      9 C09         -0.3030    -0.0290     0.2790 ca         1 ZZK      -0.013000
     10 C10         -1.6250    -0.5220     0.3740 cp         1 ZZK      -0.143000
     11 C11         -2.7950     0.4040     0.4800 cp         1 ZZK       0.001000
     12 C12         -2.7190     1.6150     1.2260 ca         1 ZZK      -0.109000
     13 C13         -3.8230     2.4950     1.3210 ca         1 ZZK      -0.108000
     14 C14         -5.0360     2.1910     0.6690 ca         1 ZZK      -0.097000
     15 C15         -5.1050     0.9980    -0.0600 ca         1 ZZK       0.055100
     16 O16         -6.1770     0.5640    -0.7700 os         1 ZZK      -0.344100
     17 C17         -5.7320    -0.7550    -1.2470 c5         1 ZZK       0.370600
     18 O18         -4.3030    -0.9240    -0.9420 os         1 ZZK      -0.343100
     19 C19         -4.0380     0.1480    -0.1490 ca         1 ZZK       0.052100
     20 C20         -1.7840    -1.9320     0.3760 ca         1 ZZK       0.420900
     21 N21         -0.7580    -2.8100     0.2890 nb         1 ZZK      -0.751000
     22 C22          0.4620    -2.3020     0.2050 ca         1 ZZK       0.619900
     23 N23          1.3430    -3.2990     0.0740 nv         1 ZZK      -1.053900
     24 C24          2.5000     0.6390    -0.8160 ca         1 ZZK      -0.116500
     25 C25          3.8070     1.1450    -0.9240 ca         1 ZZK      -0.072500
     26 H011         7.4800     2.4870    -1.1530 hn         1 ZZK       0.314000
     27 H012         5.8050     2.5140    -1.6630 hn         1 ZZK       0.314000
     28 H05          5.3170    -0.8370     1.4220 ha         1 ZZK       0.124500
     29 H25          3.9920     1.9450    -1.6360 ha         1 ZZK       0.124500
     30 H06          3.0230    -1.7040     1.6090 ha         1 ZZK       0.124500
     31 H24          1.7190     1.0570    -1.4470 ha         1 ZZK       0.124500
     32 H09         -0.1210     1.0440     0.2700 ha         1 ZZK       0.121000
     33 H20         -2.7740    -2.3760     0.4700 h4         1 ZZK       0.027100
     34 H12         -1.7990     1.8710     1.7450 ha         1 ZZK       0.121000
     35 H13         -3.7360     3.4130     1.8990 ha         1 ZZK       0.121000
     36 H14         -5.8900     2.8600     0.7260 ha         1 ZZK       0.135000
     37 H171        -6.3010    -1.5320    -0.7230 h2         1 ZZK       0.064700
     38 H172        -5.8950    -0.8340    -2.3280 h2         1 ZZK       0.064700
     39 H231         2.2260    -3.0680    -0.3630 hn         1 ZZK       0.477500
     40 H232         0.9370    -4.1940    -0.1640 hn         1 ZZK       0.477500
@<TRIPOS>BOND
     1     1     2 1   
     2     1    26 1   
     3     1    27 1   
     4     2     3 2   
     5     2     4 1   
     6     4     5 ar  
     7     4    25 ar  
     8     5     6 ar  
     9     5    28 1   
    10     6     7 ar  
    11     6    30 1   
    12     7     8 1   
    13     7    24 ar  
    14     8     9 ar  
    15     8    22 ar  
    16     9    10 ar  
    17     9    32 1   
    18    10    11 1   
    19    10    20 ar  
    20    11    12 ar  
    21    11    19 ar  
    22    12    13 ar  
    23    12    34 1   
    24    13    14 ar  
    25    13    35 1   
    26    14    15 ar  
    27    14    36 1   
    28    15    16 1   
    29    15    19 ar  
    30    16    17 1   
    31    17    18 1   
    32    17    37 1   
    33    17    38 1   
    34    18    19 1   
    35    20    21 ar  
    36    20    33 1   
    37    21    22 ar  
    38    22    23 1   
    39    23    39 1   
    40    23    40 1   
    41    24    25 ar  
    42    24    31 1   
    43    25    29 1   
@<TRIPOS>SUBSTRUCTURE
     1 ZZK         1 TEMP              0 ****  ****    0 ROOT
