@<TRIPOS>MOLECULE
ZZL
   48    52     1     0     0
SMALL
No Charge or Current Charge


@<TRIPOS>ATOM
      1 C13          1.3360    -0.4750    -2.5270 c3         1 ZZL       0.176100
      2 C15          2.8960    -0.7710    -0.7100 ce         1 ZZL       0.521500
      3 C17          4.9180    -2.2810    -0.7470 ca         1 ZZL       0.226500
      4 C20          5.7720    -3.2830     1.3020 ca         1 ZZL      -0.052000
      5 C21          4.7540    -2.6430     2.0270 ca         1 ZZL      -0.180000
      6 C22          3.8260    -1.8230     1.3670 ca         1 ZZL       0.226500
      7 C24          2.7150     0.6410    -0.2020 ca         1 ZZL      -0.143900
      8 C26          3.8120     2.6340     0.7220 ca         1 ZZL       0.120000
      9 C28          2.5800     3.2870     0.8140 ca         1 ZZL      -0.103000
     10 O01         -9.4170    -0.4030    -0.8170 o          1 ZZL      -0.719500
     11 O03         -9.5090    -0.2370     1.3220 o          1 ZZL      -0.719500
     12 C04         -7.3850     0.0130     0.3170 ca         1 ZZL      -0.139600
     13 C05         -6.6180     0.0390    -0.8710 ca         1 ZZL      -0.069000
     14 C06         -5.2300     0.2610    -0.8260 ca         1 ZZL      -0.168500
     15 C07         -4.5760     0.4530     0.4040 ca         1 ZZL       0.252000
     16 C09         -2.0970     0.3900    -0.2920 ca         1 ZZL       0.396900
     17 N10         -2.2510    -0.4390    -1.3410 nb         1 ZZL      -0.212000
     18 C11         -1.1430    -0.7160    -2.0530 ca         1 ZZL       0.170900
     19 C12          0.1070    -0.1730    -1.7080 ca         1 ZZL      -0.283300
     20 N14          2.2450    -1.2710    -1.7150 n2         1 ZZL      -0.542900
     21 C16          3.9010    -1.6250    -0.0250 ca         1 ZZL      -0.218900
     22 C19          5.8500    -3.0990    -0.0880 ca         1 ZZL      -0.180000
     23 C25          3.8800     1.3280     0.2180 ca         1 ZZL      -0.091000
     24 Cl1          5.2810     3.4500     1.2420 cl         1 ZZL      -0.207000
     25 C29          1.4140     2.6340     0.3900 ca         1 ZZL      -0.064000
     26 C30          1.4510     1.3140    -0.1340 cp         1 ZZL      -0.114500
     27 C31          0.1720     0.6650    -0.5750 cp         1 ZZL       0.219500
     28 N32         -0.9470     0.9430     0.1230 nb         1 ZZL      -0.263000
     29 C33         -5.3340     0.4460     1.5850 ca         1 ZZL      -0.168500
     30 C34         -6.7220     0.2230     1.5470 ca         1 ZZL      -0.069000
     31 H131         1.0520    -1.0260    -3.4350 h1         1 ZZL       0.060200
     32 H132         1.8060     0.4640    -2.8500 h1         1 ZZL       0.060200
     33 H19          6.6350    -3.5880    -0.6590 ha         1 ZZL       0.136500
     34 H20          6.4940    -3.9180     1.8120 ha         1 ZZL       0.119000
     35 H21          4.6800    -2.7850     3.1020 ha         1 ZZL       0.136500
     36 H25          4.8540     0.8480     0.1560 ha         1 ZZL       0.131000
     37 H28          2.5280     4.3000     1.2060 ha         1 ZZL       0.130000
     38 H29          0.4670     3.1670     0.4580 ha         1 ZZL       0.142000
     39 H05         -7.0970    -0.1080    -1.8370 ha         1 ZZL       0.129500
     40 H34         -7.2810     0.2160     2.4810 ha         1 ZZL       0.129500
     41 H06         -4.6780     0.2990    -1.7590 ha         1 ZZL       0.105000
     42 H08         -2.9250     1.1260     1.3780 hn         1 ZZL       0.500000
     43 H33         -4.8480     0.6040     2.5440 ha         1 ZZL       0.105000
     44 H11         -1.2640    -1.3760    -2.9100 h4         1 ZZL       0.022100
     45 N08         -3.2010     0.6920     0.4980 nu         1 ZZL      -0.901900
     46 F18          5.0410    -2.1020    -2.0810 f          1 ZZL      -0.159500
     47 F23          2.8410    -1.2420     2.0880 f          1 ZZL      -0.159500
     48 C02         -8.8850    -0.2270     0.2710 c          1 ZZL       0.713600
@<TRIPOS>BOND
     1     1    19 1   
     2     1    20 1   
     3     1    31 1   
     4     1    32 1   
     5     2     7 1   
     6     2    20 2   
     7     2    21 1   
     8     3    21 ar  
     9     3    22 ar  
    10     3    46 1   
    11     4     5 ar  
    12     4    22 ar  
    13     4    34 1   
    14     5     6 ar  
    15     5    35 1   
    16     6    21 ar  
    17     6    47 1   
    18     7    23 ar  
    19     7    26 ar  
    20     8     9 ar  
    21     8    23 ar  
    22     8    24 1   
    23     9    25 ar  
    24     9    37 1   
    25    10    48 1   
    26    11    48 1   
    27    12    13 ar  
    28    12    30 ar  
    29    12    48 1   
    30    13    14 ar  
    31    13    39 1   
    32    14    15 ar  
    33    14    41 1   
    34    15    29 ar  
    35    15    45 1   
    36    16    17 ar  
    37    16    28 ar  
    38    16    45 1   
    39    17    18 ar  
    40    18    19 ar  
    41    18    44 1   
    42    19    27 ar  
    43    22    33 1   
    44    23    36 1   
    45    25    26 ar  
    46    25    38 1   
    47    26    27 1   
    48    27    28 ar  
    49    29    30 ar  
    50    29    43 1   
    51    30    40 1   
    52    42    45 1   
@<TRIPOS>SUBSTRUCTURE
     1 ZZL         1 TEMP              0 ****  ****    0 ROOT
