@<TRIPOS>MOLECULE
ZZL
   48    52     1     0     0
SMALL
abcg2


@<TRIPOS>ATOM
      1 C13          1.3860    -0.2290    -2.6000 c3         1 ZZL       0.176100
      2 C15          2.8490    -0.6730    -0.8390 ce         1 ZZL       0.521500
      3 C17          4.8490    -2.2070    -0.7330 ca         1 ZZL       0.226500
      4 C20          5.4280    -3.3710     1.2600 ca         1 ZZL      -0.052000
      5 C21          4.3560    -2.7890     1.9210 ca         1 ZZL      -0.180000
      6 C22          3.5550    -1.9140     1.2170 ca         1 ZZL       0.226500
      7 C24          2.7060     0.6880    -0.2600 ca         1 ZZL      -0.143900
      8 C26          3.7890     2.5450     0.8210 ca         1 ZZL       0.120000
      9 C28          2.5730     3.1980     0.9700 ca         1 ZZL      -0.103000
     10 O01         -9.1340    -1.1330    -0.5260 o          1 ZZL      -0.719500
     11 O03         -9.3680     0.0600     1.3410 o          1 ZZL      -0.719500
     12 C04         -7.2150    -0.1190     0.3970 ca         1 ZZL      -0.139600
     13 C05         -6.3830    -0.5950    -0.6090 ca         1 ZZL      -0.069000
     14 C06         -5.0200    -0.3330    -0.6340 ca         1 ZZL      -0.168500
     15 C07         -4.4450     0.4350     0.3820 ca         1 ZZL       0.252000
     16 C09         -2.0320     0.4820    -0.3180 ca         1 ZZL       0.396900
     17 N10         -2.1860    -0.2490    -1.4170 nb         1 ZZL      -0.212000
     18 C11         -1.0950    -0.4700    -2.1330 ca         1 ZZL       0.170900
     19 C12          0.1540     0.0150    -1.7910 ca         1 ZZL      -0.283300
     20 N14          2.2780    -1.1160    -1.8780 n2         1 ZZL      -0.542900
     21 C16          3.7650    -1.5950    -0.1180 ca         1 ZZL      -0.218900
     22 C19          5.6870    -3.0840    -0.0720 ca         1 ZZL      -0.180000
     23 C25          3.8600     1.2980     0.2340 ca         1 ZZL      -0.091000
     24 CL1          5.2350     3.2970     1.3930 cl         1 ZZL      -0.207000
     25 C29          1.4270     2.5830     0.5060 ca         1 ZZL      -0.064000
     26 C30          1.4720     1.3420    -0.1300 cp         1 ZZL      -0.114500
     27 C31          0.2070     0.7520    -0.6050 cp         1 ZZL       0.219500
     28 N32         -0.8750     0.9890     0.1160 nb         1 ZZL      -0.263000
     29 C33         -5.2750     0.9200     1.4000 ca         1 ZZL      -0.168500
     30 C34         -6.6290     0.6470     1.4030 ca         1 ZZL      -0.069000
     31 H131         1.1220    -0.6980    -3.5470 h1         1 ZZL       0.060200
     32 H132         1.8800     0.7230    -2.8330 h1         1 ZZL       0.060200
     33 H19          6.5260    -3.5290    -0.5890 ha         1 ZZL       0.136500
     34 H20          6.0710    -4.0580     1.7920 ha         1 ZZL       0.119000
     35 H21          4.1430    -3.0130     2.9580 ha         1 ZZL       0.136500
     36 H25          4.8140     0.7940     0.1530 ha         1 ZZL       0.131000
     37 H28          2.5210     4.1680     1.4430 ha         1 ZZL       0.130000
     38 H29          0.4750     3.0810     0.6280 ha         1 ZZL       0.142000
     39 H05         -6.8090    -1.1910    -1.4050 ha         1 ZZL       0.129500
     40 H34         -7.2420     1.0370     2.2050 ha         1 ZZL       0.129500
     41 H06         -4.4150    -0.7250    -1.4340 ha         1 ZZL       0.105000
     42 H08         -2.8500     1.3260     1.2790 hn         1 ZZL       0.500000
     43 H33         -4.8470     1.5150     2.2000 ha         1 ZZL       0.105000
     44 H11         -1.2220    -1.0610    -3.0350 h4         1 ZZL       0.022100
     45 N08         -3.0980     0.7680     0.4760 nu         1 ZZL      -0.901900
     46 F18          5.1070    -1.9120    -2.0100 f          1 ZZL      -0.159500
     47 F23          2.5080    -1.3510     1.8310 f          1 ZZL      -0.159500
     48 C02         -8.7030    -0.4240     0.4040 c          1 ZZL       0.713600
@<TRIPOS>BOND
     1     1    19 1   
     2     1    20 1   
     3     1    31 1   
     4     1    32 1   
     5     2     7 1   
     6     2    20 2   
     7     2    21 1   
     8     3    21 ar  
     9     3    22 ar  
    10     3    46 1   
    11     4     5 ar  
    12     4    22 ar  
    13     4    34 1   
    14     5     6 ar  
    15     5    35 1   
    16     6    21 ar  
    17     6    47 1   
    18     7    23 ar  
    19     7    26 ar  
    20     8     9 ar  
    21     8    23 ar  
    22     8    24 1   
    23     9    25 ar  
    24     9    37 1   
    25    10    48 1   
    26    11    48 1   
    27    12    13 ar  
    28    12    30 ar  
    29    12    48 1   
    30    13    14 ar  
    31    13    39 1   
    32    14    15 ar  
    33    14    41 1   
    34    15    29 ar  
    35    15    45 1   
    36    16    17 ar  
    37    16    28 ar  
    38    16    45 1   
    39    17    18 ar  
    40    18    19 ar  
    41    18    44 1   
    42    19    27 ar  
    43    22    33 1   
    44    23    36 1   
    45    25    26 ar  
    46    25    38 1   
    47    26    27 1   
    48    27    28 ar  
    49    29    30 ar  
    50    29    43 1   
    51    30    40 1   
    52    42    45 1   
@<TRIPOS>SUBSTRUCTURE
     1 ZZL         1 TEMP              0 ****  ****    0 ROOT
