@<TRIPOS>MOLECULE
ZZM
   35    37     1     0     0
SMALL
abcg2


@<TRIPOS>ATOM
      1 CAA          3.6340     2.7510    -1.2640 c3         1 ZZM      -0.105100
      2 CAB          3.6800     1.9030    -0.0020 c3         1 ZZM       0.109300
      3 CAC          3.6410     2.7480     1.2620 c3         1 ZZM      -0.105100
      4 NAE          2.5950     0.9290    -0.0000 na         1 ZZM      -0.012100
      5 NAD          1.3230     1.3280     0.0090 nc         1 ZZM      -0.495100
      6 C6           2.6960    -0.4160    -0.0050 ca         1 ZZM       0.156500
      7 N1           3.8140    -1.1480    -0.0130 nb         1 ZZM      -0.231000
      8 C2           3.5600    -2.4400    -0.0130 ca         1 ZZM       0.197900
      9 N3           2.3780    -3.0580    -0.0060 nb         1 ZZM      -0.311000
     10 C4           1.2660    -2.3210     0.0000 ca         1 ZZM       0.462900
     11 NAN          0.0870    -2.9390     0.0060 nv         1 ZZM      -1.068900
     12 C5           1.3950    -0.9140     0.0010 ca         1 ZZM      -0.376900
     13 CAI          0.5750     0.2420     0.0100 cd         1 ZZM       0.437800
     14 CAM         -0.8370     0.3050     0.0200 ch         1 ZZM      -0.099200
     15 CAO         -2.0440     0.3190     0.0170 cg         1 ZZM      -0.100000
     16 CAP         -3.4630     0.3450     0.0110 ca         1 ZZM      -0.025000
     17 CAQ         -4.2150    -0.8310    -0.0050 ca         1 ZZM      -0.057000
     18 CAR         -5.5940    -0.7360    -0.0090 ca         1 ZZM      -0.164000
     19 CAU         -6.1750     0.5240     0.0030 ca         1 ZZM       0.343900
     20 NAT         -5.4710     1.6510     0.0190 nb         1 ZZM      -0.663000
     21 CAS         -4.1520     1.5630     0.0240 ca         1 ZZM       0.363900
     22 HAA1         4.4970     3.4160    -1.2870 hc         1 ZZM       0.049700
     23 HAA2         3.6600     2.1330    -2.1620 hc         1 ZZM       0.049700
     24 HAA3         2.7330     3.3640    -1.2910 hc         1 ZZM       0.049700
     25 HAB          4.5910     1.3020    -0.0060 h1         1 ZZM       0.084700
     26 HAC1         4.5060     3.4100     1.2840 hc         1 ZZM       0.049700
     27 HAC2         2.7410     3.3630     1.2950 hc         1 ZZM       0.049700
     28 HAC3         3.6690     2.1260     2.1570 hc         1 ZZM       0.049700
     29 H2           4.4230    -3.0970    -0.0180 h5         1 ZZM       0.047100
     30 HAN1         0.0470    -3.9440     0.0060 hn         1 ZZM       0.505000
     31 HAN2        -0.7800    -2.4320     0.0110 hn         1 ZZM       0.505000
     32 HAQ         -3.7240    -1.7950    -0.0150 ha         1 ZZM       0.118000
     33 HAS         -3.5960     2.4940     0.0360 h4         1 ZZM       0.031100
     34 HAR         -6.2140    -1.6220    -0.0210 ha         1 ZZM       0.127000
     35 HAU         -7.2540     0.6270     0.0010 h4         1 ZZM       0.022100
@<TRIPOS>BOND
     1     1     2 1   
     2     1    22 1   
     3     1    23 1   
     4     1    24 1   
     5     2     3 1   
     6     2     4 1   
     7     2    25 1   
     8     3    26 1   
     9     3    27 1   
    10     3    28 1   
    11     4     5 1   
    12     4     6 1   
    13     5    13 2   
    14     6     7 ar  
    15     6    12 ar  
    16     7     8 ar  
    17     8     9 ar  
    18     8    29 1   
    19     9    10 ar  
    20    10    11 1   
    21    10    12 ar  
    22    11    30 1   
    23    11    31 1   
    24    12    13 1   
    25    13    14 1   
    26    14    15 3   
    27    15    16 1   
    28    16    17 ar  
    29    16    21 ar  
    30    17    18 ar  
    31    17    32 1   
    32    18    19 ar  
    33    18    34 1   
    34    19    20 ar  
    35    19    35 1   
    36    20    21 ar  
    37    21    33 1   
@<TRIPOS>SUBSTRUCTURE
     1 ZZM         1 TEMP              0 ****  ****    0 ROOT
