@<TRIPOS>MOLECULE
ZZM
   35    37     1     0     0
SMALL
No Charge or Current Charge


@<TRIPOS>ATOM
      1 CAA          3.7930     2.8960    -1.0460 c3         1 ZZM      -0.105100
      2 CAB          3.7460     1.9190     0.1500 c3         1 ZZM       0.109300
      3 CAC          3.7760     2.6640     1.5020 c3         1 ZZM      -0.105100
      4 NAE          2.5950     0.9920     0.0570 na         1 ZZM      -0.012100
      5 NAD          1.2580     1.4060     0.0860 nc         1 ZZM      -0.495100
      6 C6           2.7130    -0.3840    -0.0680 ca         1 ZZM       0.156500
      7 N1           3.7760    -1.2100    -0.1370 nb         1 ZZM      -0.231000
      8 C2           3.4850    -2.5280    -0.2590 ca         1 ZZM       0.197900
      9 N3           2.2480    -3.0810    -0.3170 nb         1 ZZM      -0.311000
     10 C4           1.2160    -2.2280    -0.2450 ca         1 ZZM       0.462900
     11 NAN         -0.0150    -2.7800    -0.3020 nv         1 ZZM      -1.068900
     12 C5           1.4380    -0.8640    -0.1210 ca         1 ZZM      -0.376900
     13 CAI          0.5560     0.2710    -0.0220 cd         1 ZZM       0.437800
     14 CAM         -0.8640     0.3280    -0.0320 ch         1 ZZM      -0.099200
     15 CAO         -2.0850     0.3080    -0.0460 cg         1 ZZM      -0.100000
     16 CAP         -3.5190     0.2790    -0.0480 ca         1 ZZM      -0.025000
     17 CAQ         -4.2170    -0.5950     0.8030 ca         1 ZZM      -0.057000
     18 CAR         -5.6220    -0.5820     0.7620 ca         1 ZZM      -0.164000
     19 CAU         -6.2780     0.2950    -0.1190 ca         1 ZZM       0.343900
     20 NAT         -5.6150     1.1410    -0.9430 nb         1 ZZM      -0.663000
     21 CAS         -4.2590     1.1270    -0.9010 ca         1 ZZM       0.363900
     22 HAA1         4.6930     3.5210    -0.9990 hc         1 ZZM       0.049700
     23 HAA2         3.8130     2.3420    -1.9930 hc         1 ZZM       0.049700
     24 HAA3         2.9160     3.5530    -1.0500 hc         1 ZZM       0.049700
     25 HAB          4.6590     1.3120     0.1010 h1         1 ZZM       0.084700
     26 HAC1         4.6750     3.2870     1.5800 hc         1 ZZM       0.049700
     27 HAC2         2.8980     3.3120     1.6120 hc         1 ZZM       0.049700
     28 HAC3         3.7840     1.9500     2.3340 hc         1 ZZM       0.049700
     29 H2           4.3300    -3.2110    -0.3160 h5         1 ZZM       0.047100
     30 HAN1        -0.0870    -3.7450    -0.6140 hn         1 ZZM       0.505000
     31 HAN2        -0.8100    -2.1780    -0.4940 hn         1 ZZM       0.505000
     32 HAQ         -3.6880    -1.2650     1.4780 ha         1 ZZM       0.118000
     33 HAS         -3.7500     1.8170    -1.5740 h4         1 ZZM       0.031100
     34 HAR         -6.2020    -1.2410     1.4030 ha         1 ZZM       0.127000
     35 HAU         -7.3660     0.3220    -0.1680 h4         1 ZZM       0.022100
@<TRIPOS>BOND
     1     1     2 1   
     2     1    22 1   
     3     1    23 1   
     4     1    24 1   
     5     2     3 1   
     6     2     4 1   
     7     2    25 1   
     8     3    26 1   
     9     3    27 1   
    10     3    28 1   
    11     4     5 1   
    12     4     6 1   
    13     5    13 2   
    14     6     7 ar  
    15     6    12 ar  
    16     7     8 ar  
    17     8     9 ar  
    18     8    29 1   
    19     9    10 ar  
    20    10    11 1   
    21    10    12 ar  
    22    11    30 1   
    23    11    31 1   
    24    12    13 1   
    25    13    14 1   
    26    14    15 3   
    27    15    16 1   
    28    16    17 ar  
    29    16    21 ar  
    30    17    18 ar  
    31    17    32 1   
    32    18    19 ar  
    33    18    34 1   
    34    19    20 ar  
    35    19    35 1   
    36    20    21 ar  
    37    21    33 1   
@<TRIPOS>SUBSTRUCTURE
     1 ZZM         1 TEMP              0 ****  ****    0 ROOT
