@<TRIPOS>MOLECULE
ZZN
   60    65     1     0     0
SMALL
No Charge or Current Charge


@<TRIPOS>ATOM
      1 CAT         -3.1530     1.6030    -2.5530 c3         1 ZZN      -0.053800
      2 CAP         -2.2090     1.8910    -1.3890 ca         1 ZZN      -0.054300
      3 CAQ         -1.6300     3.1700    -1.2640 ca         1 ZZN      -0.108000
      4 CAR         -0.7910     3.4730    -0.1790 ca         1 ZZN      -0.096000
      5 CAJ         -0.5340     2.5020     0.8020 ca         1 ZZN      -0.109000
      6 CAI         -1.1050     1.2250     0.6880 ca         1 ZZN      -0.092000
      7 CAH         -1.9190     0.9040    -0.4170 ca         1 ZZN       0.013600
      8 NAG         -2.4880    -0.4140    -0.5030 n          1 ZZN      -0.263500
      9 CAF         -3.6400    -0.7950     0.1680 c          1 ZZN       0.581600
     10 OAB         -4.2350    -0.0000     0.8850 o          1 ZZN      -0.520000
     11 CAE         -4.0790    -2.2070    -0.0610 ca         1 ZZN      -0.195600
     12 CAD         -5.2420    -2.7780     0.5420 ca         1 ZZN       0.001700
     13 CAA         -6.1610    -2.0130     1.4930 c3         1 ZZN      -0.050800
     14 CAC         -5.5810    -4.1150     0.2590 ca         1 ZZN      -0.142000
     15 CAK         -4.7930    -4.8850    -0.6010 ca         1 ZZN      -0.070000
     16 CAL         -3.6560    -4.3200    -1.1860 ca         1 ZZN      -0.108000
     17 CAM         -3.2840    -2.9890    -0.9280 ca         1 ZZN       0.193400
     18 NAN         -2.1200    -2.5520    -1.5720 nc         1 ZZN      -0.624100
     19 CAO         -1.7610    -1.2900    -1.3140 cd         1 ZZN       0.489900
     20 CAS         -0.4680    -0.8980    -2.0200 c3         1 ZZN       0.060300
     21 NAV          0.6940    -0.6030    -1.1590 na         1 ZZN      -0.007100
     22 NAU          1.5300     0.4900    -1.3810 nc         1 ZZN      -0.501100
     23 C6           1.0040    -1.2750     0.0180 ca         1 ZZN       0.178500
     24 N1           0.4380    -2.3290     0.6390 nb         1 ZZN      -0.228000
     25 C2           0.9670    -2.6530     1.8420 ca         1 ZZN       0.200900
     26 N3           1.9740    -2.0100     2.4800 nb         1 ZZN      -0.310000
     27 C4           2.5130    -0.9670     1.8350 ca         1 ZZN       0.455900
     28 NBK          3.4700    -0.3000     2.5120 nv         1 ZZN      -1.067900
     29 C5           2.0530    -0.6010     0.5740 ca         1 ZZN      -0.376900
     30 CBD          2.3720     0.4730    -0.3410 cd         1 ZZN       0.433500
     31 CBC          3.4420     1.4820    -0.1860 ca         1 ZZN      -0.030900
     32 CBB          4.7690     1.1030     0.1160 ca         1 ZZN      -0.228000
     33 CBJ          3.1710     2.8410    -0.4520 ca         1 ZZN      -0.163000
     34 CBI          4.1900     3.8000    -0.3570 ca         1 ZZN       0.208000
     35 F            3.9120     5.0990    -0.5960 f          1 ZZN      -0.172000
     36 CBH          5.4950     3.4180    -0.0200 ca         1 ZZN      -0.189000
     37 CBA          5.7840     2.0680     0.2070 ca         1 ZZN       0.164100
     38 OAZ          7.0570     1.6950     0.5080 oh         1 ZZN      -0.526100
     39 HAT1        -2.7110     0.8950    -3.2630 hc         1 ZZN       0.050700
     40 HAT2        -4.0990     1.1760    -2.1980 hc         1 ZZN       0.050700
     41 HAT3        -3.3990     2.5140    -3.1110 hc         1 ZZN       0.050700
     42 HAQ         -1.8350     3.9380    -2.0080 ha         1 ZZN       0.118000
     43 HAR         -0.3500     4.4630    -0.0920 ha         1 ZZN       0.117000
     44 HAJ          0.1060     2.7390     1.6490 ha         1 ZZN       0.120000
     45 HAI         -0.9060     0.4780     1.4520 ha         1 ZZN       0.128000
     46 HAA1        -6.6060    -1.1410     1.0000 hc         1 ZZN       0.053367
     47 HAA2        -6.9910    -2.6330     1.8510 hc         1 ZZN       0.053367
     48 HAA3        -5.6160    -1.6690     2.3800 hc         1 ZZN       0.053367
     49 HAC         -6.4630    -4.5650     0.7090 ha         1 ZZN       0.116000
     50 HAK         -5.0630    -5.9170    -0.8140 ha         1 ZZN       0.117000
     51 HAL         -3.0470    -4.9250    -1.8530 ha         1 ZZN       0.133000
     52 HAS1        -0.1730    -1.7060    -2.6990 h1         1 ZZN       0.098200
     53 HAS2        -0.6630    -0.0240    -2.6480 h1         1 ZZN       0.098200
     54 H2           0.5240    -3.5030     2.3570 h5         1 ZZN       0.047100
     55 HBK1         3.5760    -0.4920     3.5040 hn         1 ZZN       0.502000
     56 HBK2         3.7530     0.6180     2.1850 hn         1 ZZN       0.502000
     57 HBB          5.0060     0.0510     0.2610 ha         1 ZZN       0.128000
     58 HBJ          2.1670     3.1560    -0.7240 ha         1 ZZN       0.148000
     59 HBH          6.2790     4.1660     0.0490 ha         1 ZZN       0.149000
     60 HAZ          7.0750     0.7210     0.6240 ho         1 ZZN       0.470000
@<TRIPOS>BOND
     1     1     2 1   
     2     1    39 1   
     3     1    40 1   
     4     1    41 1   
     5     2     3 ar  
     6     2     7 ar  
     7     3     4 ar  
     8     3    42 1   
     9     4     5 ar  
    10     4    43 1   
    11     5     6 ar  
    12     5    44 1   
    13     6     7 ar  
    14     6    45 1   
    15     7     8 1   
    16     8     9 1   
    17     8    19 1   
    18     9    10 2   
    19     9    11 1   
    20    11    12 ar  
    21    11    17 ar  
    22    12    13 1   
    23    12    14 ar  
    24    13    46 1   
    25    13    47 1   
    26    13    48 1   
    27    14    15 ar  
    28    14    49 1   
    29    15    16 ar  
    30    15    50 1   
    31    16    17 ar  
    32    16    51 1   
    33    17    18 1   
    34    18    19 2   
    35    19    20 1   
    36    20    21 1   
    37    20    52 1   
    38    20    53 1   
    39    21    22 1   
    40    21    23 1   
    41    22    30 2   
    42    23    24 ar  
    43    23    29 ar  
    44    24    25 ar  
    45    25    26 ar  
    46    25    54 1   
    47    26    27 ar  
    48    27    28 1   
    49    27    29 ar  
    50    28    55 1   
    51    28    56 1   
    52    29    30 1   
    53    30    31 1   
    54    31    32 ar  
    55    31    33 ar  
    56    32    37 ar  
    57    32    57 1   
    58    33    34 ar  
    59    33    58 1   
    60    34    35 1   
    61    34    36 ar  
    62    36    37 ar  
    63    36    59 1   
    64    37    38 1   
    65    38    60 1   
@<TRIPOS>SUBSTRUCTURE
     1 ZZN         1 TEMP              0 ****  ****    0 ROOT
