@<TRIPOS>MOLECULE
ZZN
   60    65     1     0     0
SMALL
bcc


@<TRIPOS>ATOM
      1 CAT         -2.9290     1.6830    -2.6160 c3         1 ZZN      -0.053800
      2 CAP         -3.5400     2.2860    -1.3870 ca         1 ZZN      -0.054300
      3 CAQ         -4.1100     3.5570    -1.4140 ca         1 ZZN      -0.126000
      4 CAR         -4.6830     4.1160    -0.2810 ca         1 ZZN      -0.114000
      5 CAJ         -4.6990     3.4120     0.9140 ca         1 ZZN      -0.127000
      6 CAI         -4.1360     2.1450     0.9660 ca         1 ZZN      -0.110000
      7 CAH         -3.5640     1.6010    -0.1730 ca         1 ZZN       0.013600
      8 NAG         -2.9710     0.2990    -0.0940 n          1 ZZN      -0.330500
      9 CAF         -3.7870    -0.7930    -0.4030 c          1 ZZN       0.724100
     10 OAB         -4.9460    -0.5940    -0.7040 o          1 ZZN      -0.595500
     11 CAE         -3.1230    -2.0910    -0.3300 ca         1 ZZN      -0.195600
     12 CAD         -3.8000    -3.3000    -0.6140 ca         1 ZZN       0.001700
     13 CAA         -5.2490    -3.3820    -0.9990 c3         1 ZZN      -0.050800
     14 CAC         -3.0800    -4.4800    -0.5250 ca         1 ZZN      -0.160000
     15 CAK         -1.7320    -4.4970    -0.1680 ca         1 ZZN      -0.088000
     16 CAL         -1.0720    -3.3230     0.1100 ca         1 ZZN      -0.126000
     17 CAM         -1.7620    -2.1100     0.0310 ca         1 ZZN       0.193400
     18 NAN         -1.0560    -0.9670     0.3180 nc         1 ZZN      -0.624100
     19 CAO         -1.6540     0.1580     0.2510 cd         1 ZZN       0.489900
     20 CAS         -0.8860     1.4190     0.5800 c3         1 ZZN       0.031000
     21 NAV          0.4940     1.1280     0.8070 na         1 ZZN       0.022200
     22 NAU          1.3490     1.0380    -0.2230 nc         1 ZZN      -0.501100
     23 C6           1.0460     0.6810     1.9510 ca         1 ZZN       0.506800
     24 N1           0.4590     0.6120     3.1450 nb         1 ZZN      -0.754000
     25 C2           1.2820     0.1660     4.0730 ca         1 ZZN       0.726900
     26 N3           2.5640    -0.1680     3.9490 nb         1 ZZN      -0.836000
     27 C4           3.1480    -0.0780     2.7510 ca         1 ZZN       0.784200
     28 NBK          4.4430    -0.3810     2.6650 nv         1 ZZN      -0.957500
     29 C5           2.3600     0.3270     1.6470 ca         1 ZZN      -0.507500
     30 CBD          2.4780     0.5690     0.2490 cd         1 ZZN       0.433500
     31 CBC          3.6270     0.3620    -0.6400 ca         1 ZZN      -0.030900
     32 CBB          4.3390    -0.8340    -0.5770 ca         1 ZZN      -0.246000
     33 CBJ          3.9800     1.3480    -1.5560 ca         1 ZZN      -0.181000
     34 CBI          5.0600     1.1020    -2.3810 ca         1 ZZN       0.172900
     35 F            5.4190     2.0450    -3.2630 f          1 ZZN      -0.136900
     36 CBH          5.7960    -0.0640    -2.3410 ca         1 ZZN      -0.207000
     37 CBA          5.4230    -1.0460    -1.4260 ca         1 ZZN       0.164100
     38 OAZ          6.1400    -2.1790    -1.4130 oh         1 ZZN      -0.487100
     39 HAT1        -1.8890     1.3920    -2.4620 hc         1 ZZN       0.050700
     40 HAT2        -3.4700     0.7890    -2.9320 hc         1 ZZN       0.050700
     41 HAT3        -2.9500     2.3910    -3.4430 hc         1 ZZN       0.050700
     42 HAQ         -4.1060     4.1160    -2.3420 ha         1 ZZN       0.136000
     43 HAR         -5.1190     5.1050    -0.3340 ha         1 ZZN       0.135000
     44 HAJ         -5.1450     3.8410     1.8000 ha         1 ZZN       0.138000
     45 HAI         -4.1380     1.5790     1.8880 ha         1 ZZN       0.146000
     46 HAA1        -5.4630    -2.8340    -1.9160 hc         1 ZZN       0.053367
     47 HAA2        -5.5260    -4.4230    -1.1580 hc         1 ZZN       0.053367
     48 HAA3        -5.8990    -2.9750    -0.2260 hc         1 ZZN       0.053367
     49 HAC         -3.5790    -5.4170    -0.7380 ha         1 ZZN       0.134000
     50 HAK         -1.2060    -5.4410    -0.1070 ha         1 ZZN       0.135000
     51 HAL         -0.0270    -3.3100     0.3890 ha         1 ZZN       0.151000
     52 HAS1        -0.9620     2.1520    -0.2240 h1         1 ZZN       0.098200
     53 HAS2        -1.2990     1.8870     1.4750 h1         1 ZZN       0.098200
     54 H2           0.8700     0.0660     5.0720 h5         1 ZZN       0.047100
     55 HBK1         4.9550    -0.5750     3.5100 hn         1 ZZN       0.446800
     56 HBK2         4.9780    -0.1890     1.8360 hn         1 ZZN       0.446800
     57 HBB          4.0270    -1.6170     0.1050 ha         1 ZZN       0.146000
     58 HBJ          3.4420     2.2840    -1.6080 ha         1 ZZN       0.166000
     59 HBH          6.6360    -0.2120    -3.0070 ha         1 ZZN       0.167000
     60 HAZ          5.7910    -2.7950    -0.7580 ho         1 ZZN       0.431000
@<TRIPOS>BOND
     1     1     2 1   
     2     1    39 1   
     3     1    40 1   
     4     1    41 1   
     5     2     3 ar  
     6     2     7 ar  
     7     3     4 ar  
     8     3    42 1   
     9     4     5 ar  
    10     4    43 1   
    11     5     6 ar  
    12     5    44 1   
    13     6     7 ar  
    14     6    45 1   
    15     7     8 1   
    16     8     9 1   
    17     8    19 1   
    18     9    10 2   
    19     9    11 1   
    20    11    12 ar  
    21    11    17 ar  
    22    12    13 1   
    23    12    14 ar  
    24    13    46 1   
    25    13    47 1   
    26    13    48 1   
    27    14    15 ar  
    28    14    49 1   
    29    15    16 ar  
    30    15    50 1   
    31    16    17 ar  
    32    16    51 1   
    33    17    18 1   
    34    18    19 2   
    35    19    20 1   
    36    20    21 1   
    37    20    52 1   
    38    20    53 1   
    39    21    22 1   
    40    21    23 1   
    41    22    30 2   
    42    23    24 ar  
    43    23    29 ar  
    44    24    25 ar  
    45    25    26 ar  
    46    25    54 1   
    47    26    27 ar  
    48    27    28 1   
    49    27    29 ar  
    50    28    55 1   
    51    28    56 1   
    52    29    30 1   
    53    30    31 1   
    54    31    32 ar  
    55    31    33 ar  
    56    32    37 ar  
    57    32    57 1   
    58    33    34 ar  
    59    33    58 1   
    60    34    35 1   
    61    34    36 ar  
    62    36    37 ar  
    63    36    59 1   
    64    37    38 1   
    65    38    60 1   
@<TRIPOS>SUBSTRUCTURE
     1 ZZN         1 TEMP              0 ****  ****    0 ROOT
