@<TRIPOS>MOLECULE
ZZO
   60    65     1     0     0
SMALL
No Charge or Current Charge


@<TRIPOS>ATOM
      1 CAT         -3.2400     0.9800    -2.8740 c3         1 ZZO      -0.054800
      2 CAL         -2.3040     1.5350    -1.8030 ca         1 ZZO      -0.053300
      3 CAM         -1.7640     2.8280    -1.9550 ca         1 ZZO      -0.109000
      4 CAE         -0.9330     3.3770    -0.9640 ca         1 ZZO      -0.096000
      5 CAD         -0.6470     2.6440     0.1980 ca         1 ZZO      -0.109000
      6 CAC         -1.1800     1.3550     0.3600 ca         1 ZZO      -0.092000
      7 CAK         -1.9840     0.7840    -0.6460 ca         1 ZZO       0.014600
      8 NAJ         -2.5120    -0.5380    -0.4490 n          1 ZZO      -0.263500
      9 CAI         -3.6520    -0.8040     0.2940 c          1 ZZO       0.581600
     10 OAB         -4.2710     0.1050     0.8310 o          1 ZZO      -0.521000
     11 CAH         -4.0460    -2.2460     0.3710 ca         1 ZZO      -0.195600
     12 CAG         -5.1910    -2.7120     1.0880 ca         1 ZZO       0.000700
     13 CAA         -6.1340    -1.7910     1.8620 c3         1 ZZO      -0.050800
     14 CAF         -5.4880    -4.0880     1.0960 ca         1 ZZO      -0.142000
     15 CAN         -4.6770    -4.9980     0.4120 ca         1 ZZO      -0.070000
     16 CAO         -3.5570    -4.5340    -0.2870 ca         1 ZZO      -0.106000
     17 CAP         -3.2280    -3.1690    -0.3170 ca         1 ZZO       0.192400
     18 NAQ         -2.0780    -2.8420    -1.0460 nc         1 ZZO      -0.621100
     19 CAR         -1.7580    -1.5440    -1.0620 cd         1 ZZO       0.488900
     20 CAS         -0.4780    -1.2700    -1.8430 c3         1 ZZO       0.061300
     21 NAV          0.6750    -0.7650    -1.0700 na         1 ZZO      -0.008100
     22 NAU          1.4810     0.2780    -1.5250 nc         1 ZZO      -0.512100
     23 C6           1.0050    -1.1650     0.2190 ca         1 ZZO       0.180500
     24 N1           0.4750    -2.0830     1.0500 nb         1 ZZO      -0.230000
     25 C2           1.0150    -2.1330     2.2900 ca         1 ZZO       0.199900
     26 N3           2.0000    -1.3380     2.7730 nb         1 ZZO      -0.310000
     27 C4           2.5030    -0.4350     1.9210 ca         1 ZZO       0.455900
     28 NBG          3.4300     0.3950     2.4390 nv         1 ZZO      -1.064900
     29 C5           2.0330    -0.3570     0.6140 ca         1 ZZO      -0.379900
     30 CAZ          2.3210     0.5050    -0.5090 cd         1 ZZO       0.448500
     31 CBE          3.3780     1.5280    -0.5910 ca         1 ZZO      -0.113900
     32 CBD          4.7080     1.2270    -0.2300 ca         1 ZZO      -0.115000
     33 CBH          5.7180     2.1940    -0.3670 ca         1 ZZO       0.132000
     34 F            6.9850     1.8810    -0.0040 f          1 ZZO      -0.164000
     35 CBI          5.4170     3.4710    -0.8870 ca         1 ZZO       0.109100
     36 OBL          6.3910     4.4230    -1.0270 oh         1 ZZO      -0.512100
     37 CBJ          4.1000     3.7640    -1.2800 ca         1 ZZO      -0.188000
     38 CBF          3.0900     2.7940    -1.1450 ca         1 ZZO      -0.054000
     39 HAT1        -2.7770     0.1510    -3.4210 hc         1 ZZO       0.051367
     40 HAT2        -4.1720     0.6100    -2.4310 hc         1 ZZO       0.051367
     41 HAT3        -3.5140     1.7450    -3.6100 hc         1 ZZO       0.051367
     42 HAM         -1.9930     3.4150    -2.8420 ha         1 ZZO       0.117000
     43 HAE         -0.5220     4.3760    -1.0910 ha         1 ZZO       0.117000
     44 HAD         -0.0130     3.0720     0.9710 ha         1 ZZO       0.120000
     45 HAC         -0.9570     0.7920     1.2630 ha         1 ZZO       0.127000
     46 HAA1        -6.6060    -1.0570     1.1990 hc         1 ZZO       0.053033
     47 HAA2        -6.9440    -2.3480     2.3480 hc         1 ZZO       0.053033
     48 HAA3        -5.6000    -1.2520     2.6540 hc         1 ZZO       0.053033
     49 HAF         -6.3560    -4.4600     1.6360 ha         1 ZZO       0.116000
     50 HAN         -4.9140    -6.0590     0.4230 ha         1 ZZO       0.117000
     51 HAO         -2.9300    -5.2480    -0.8150 ha         1 ZZO       0.135000
     52 HAS1        -0.1570    -2.1930    -2.3400 h1         1 ZZO       0.097200
     53 HAS2        -0.6990    -0.5530    -2.6400 h1         1 ZZO       0.097200
     54 H2           0.6010    -2.8700     2.9750 h5         1 ZZO       0.047100
     55 HBG1         3.5380     0.4040     3.4500 hn         1 ZZO       0.502000
     56 HBG2         3.6250     1.2660     1.9560 hn         1 ZZO       0.502000
     57 HBD          4.9660     0.2390     0.1450 ha         1 ZZO       0.144000
     58 HBF          2.0760     3.0290    -1.4640 ha         1 ZZO       0.131000
     59 HBL          5.9880     5.2320    -1.4070 ho         1 ZZO       0.470000
     60 HBJ          3.8510     4.7370    -1.6970 ha         1 ZZO       0.120000
@<TRIPOS>BOND
     1     1     2 1   
     2     1    39 1   
     3     1    40 1   
     4     1    41 1   
     5     2     3 ar  
     6     2     7 ar  
     7     3     4 ar  
     8     3    42 1   
     9     4     5 ar  
    10     4    43 1   
    11     5     6 ar  
    12     5    44 1   
    13     6     7 ar  
    14     6    45 1   
    15     7     8 1   
    16     8     9 1   
    17     8    19 1   
    18     9    10 2   
    19     9    11 1   
    20    11    12 ar  
    21    11    17 ar  
    22    12    13 1   
    23    12    14 ar  
    24    13    46 1   
    25    13    47 1   
    26    13    48 1   
    27    14    15 ar  
    28    14    49 1   
    29    15    16 ar  
    30    15    50 1   
    31    16    17 ar  
    32    16    51 1   
    33    17    18 1   
    34    18    19 2   
    35    19    20 1   
    36    20    21 1   
    37    20    52 1   
    38    20    53 1   
    39    21    22 1   
    40    21    23 1   
    41    22    30 2   
    42    23    24 ar  
    43    23    29 ar  
    44    24    25 ar  
    45    25    26 ar  
    46    25    54 1   
    47    26    27 ar  
    48    27    28 1   
    49    27    29 ar  
    50    28    55 1   
    51    28    56 1   
    52    29    30 1   
    53    30    31 1   
    54    31    32 ar  
    55    31    38 ar  
    56    32    33 ar  
    57    32    57 1   
    58    33    34 1   
    59    33    35 ar  
    60    35    36 1   
    61    35    37 ar  
    62    36    59 1   
    63    37    38 ar  
    64    37    60 1   
    65    38    58 1   
@<TRIPOS>SUBSTRUCTURE
     1 ZZO         1 TEMP              0 ****  ****    0 ROOT
