@<TRIPOS>MOLECULE
ZZO
   60    65     1     0     0
SMALL
abcg2


@<TRIPOS>ATOM
      1 CAT         -2.8770     1.1730    -2.8860 c3         1 ZZO      -0.054800
      2 CAL         -3.5920     1.9440    -1.8170 ca         1 ZZO      -0.053300
      3 CAM         -4.2060     3.1620    -2.0970 ca         1 ZZO      -0.109000
      4 CAE         -4.8720     3.8780    -1.1130 ca         1 ZZO      -0.096000
      5 CAD         -4.9380     3.3880     0.1830 ca         1 ZZO      -0.109000
      6 CAC         -4.3320     2.1780     0.4860 ca         1 ZZO      -0.092000
      7 CAK         -3.6680     1.4750    -0.5060 ca         1 ZZO       0.014600
      8 NAJ         -3.0380     0.2330    -0.1700 n          1 ZZO      -0.263500
      9 CAI         -3.7910    -0.9310    -0.3480 c          1 ZZO       0.581600
     10 OAB         -4.9260    -0.8390    -0.7690 o          1 ZZO      -0.521000
     11 CAH         -3.0990    -2.1670     0.0060 ca         1 ZZO      -0.195600
     12 CAG         -3.7190    -3.4330    -0.0990 ca         1 ZZO       0.000700
     13 CAA         -5.1260    -3.6430    -0.5790 c3         1 ZZO      -0.050800
     14 CAF         -2.9790    -4.5470     0.2650 ca         1 ZZO      -0.142000
     15 CAN         -1.6650    -4.4440     0.7190 ca         1 ZZO      -0.070000
     16 CAO         -1.0580    -3.2140     0.8170 ca         1 ZZO      -0.106000
     17 CAP         -1.7710    -2.0650     0.4620 ca         1 ZZO       0.192400
     18 NAQ         -1.1200    -0.8610     0.5820 nc         1 ZZO      -0.621100
     19 CAR         -1.7450     0.2090     0.2790 cd         1 ZZO       0.488900
     20 CAS         -1.0380     1.5360     0.4440 c3         1 ZZO       0.061300
     21 NAV          0.3570     1.3400     0.6820 na         1 ZZO      -0.008100
     22 NAU          1.1880     1.1090    -0.3470 nc         1 ZZO      -0.512100
     23 C6           0.9530     1.0990     1.8640 ca         1 ZZO       0.180500
     24 N1           0.4010     1.2020     3.0740 nb         1 ZZO      -0.230000
     25 C2           1.2650     0.9340     4.0330 ca         1 ZZO       0.199900
     26 N3           2.5540     0.6240     3.9230 nb         1 ZZO      -0.310000
     27 C4           3.1010     0.5400     2.7060 ca         1 ZZO       0.455900
     28 NBG          4.4030     0.2630     2.6270 nv         1 ZZO      -1.064900
     29 C5           2.2710     0.7420     1.5790 ca         1 ZZO      -0.379900
     30 CAZ          2.3460     0.7580     0.1560 cd         1 ZZO       0.448500
     31 CBE          3.4810     0.4560    -0.7200 ca         1 ZZO      -0.113900
     32 CBD          4.2530    -0.6880    -0.5060 ca         1 ZZO      -0.115000
     33 CBH          5.3070    -0.9660    -1.3460 ca         1 ZZO       0.132000
     34 F            6.0430    -2.0680    -1.1420 f          1 ZZO      -0.164000
     35 CBI          5.6360    -0.1450    -2.4230 ca         1 ZZO       0.109100
     36 OBL          6.6840    -0.4950    -3.1820 oh         1 ZZO      -0.512100
     37 CBJ          4.8530     0.9830    -2.6370 ca         1 ZZO      -0.188000
     38 CBF          3.7890     1.2780    -1.7990 ca         1 ZZO      -0.054000
     39 HAT1        -1.8590     0.9040    -2.5940 hc         1 ZZO       0.051367
     40 HAT2        -3.3980     0.2440    -3.1230 hc         1 ZZO       0.051367
     41 HAT3        -2.8100     1.7560    -3.8030 hc         1 ZZO       0.051367
     42 HAM         -4.1600     3.5530    -3.1060 ha         1 ZZO       0.117000
     43 HAE         -5.3390     4.8220    -1.3610 ha         1 ZZO       0.117000
     44 HAD         -5.4560     3.9410     0.9550 ha         1 ZZO       0.120000
     45 HAC         -4.3730     1.7780     1.4910 ha         1 ZZO       0.127000
     46 HAA1        -5.2670    -3.2850    -1.5980 hc         1 ZZO       0.053033
     47 HAA2        -5.3640    -4.7050    -0.5620 hc         1 ZZO       0.053033
     48 HAA3        -5.8540    -3.1240     0.0430 hc         1 ZZO       0.053033
     49 HAF         -3.4360    -5.5260     0.1910 ha         1 ZZO       0.116000
     50 HAN         -1.1230    -5.3400     0.9910 ha         1 ZZO       0.117000
     51 HAO         -0.0400    -3.1080     1.1650 ha         1 ZZO       0.135000
     52 HAS1        -1.1550     2.1720    -0.4340 h1         1 ZZO       0.097200
     53 HAS2        -1.4670     2.0800     1.2870 h1         1 ZZO       0.097200
     54 H2           0.8840     0.9810     5.0480 h5         1 ZZO       0.047100
     55 HBG1         4.9430     0.2090     3.4740 hn         1 ZZO       0.502000
     56 HBG2         4.9090     0.3480     1.7630 hn         1 ZZO       0.502000
     57 HBD          4.0240    -1.3820     0.2930 ha         1 ZZO       0.144000
     58 HBF          3.2050     2.1710    -1.9820 ha         1 ZZO       0.131000
     59 HBL          6.8220     0.1550    -3.8800 ho         1 ZZO       0.470000
     60 HBJ          5.0820     1.6430    -3.4650 ha         1 ZZO       0.120000
@<TRIPOS>BOND
     1     1     2 1   
     2     1    39 1   
     3     1    40 1   
     4     1    41 1   
     5     2     3 ar  
     6     2     7 ar  
     7     3     4 ar  
     8     3    42 1   
     9     4     5 ar  
    10     4    43 1   
    11     5     6 ar  
    12     5    44 1   
    13     6     7 ar  
    14     6    45 1   
    15     7     8 1   
    16     8     9 1   
    17     8    19 1   
    18     9    10 2   
    19     9    11 1   
    20    11    12 ar  
    21    11    17 ar  
    22    12    13 1   
    23    12    14 ar  
    24    13    46 1   
    25    13    47 1   
    26    13    48 1   
    27    14    15 ar  
    28    14    49 1   
    29    15    16 ar  
    30    15    50 1   
    31    16    17 ar  
    32    16    51 1   
    33    17    18 1   
    34    18    19 2   
    35    19    20 1   
    36    20    21 1   
    37    20    52 1   
    38    20    53 1   
    39    21    22 1   
    40    21    23 1   
    41    22    30 2   
    42    23    24 ar  
    43    23    29 ar  
    44    24    25 ar  
    45    25    26 ar  
    46    25    54 1   
    47    26    27 ar  
    48    27    28 1   
    49    27    29 ar  
    50    28    55 1   
    51    28    56 1   
    52    29    30 1   
    53    30    31 1   
    54    31    32 ar  
    55    31    38 ar  
    56    32    33 ar  
    57    32    57 1   
    58    33    34 1   
    59    33    35 ar  
    60    35    36 1   
    61    35    37 ar  
    62    36    59 1   
    63    37    38 ar  
    64    37    60 1   
    65    38    58 1   
@<TRIPOS>SUBSTRUCTURE
     1 ZZO         1 TEMP              0 ****  ****    0 ROOT
