@<TRIPOS>MOLECULE
ZZP
   51    54     1     0     0
SMALL
bcc


@<TRIPOS>ATOM
      1 CAY         -4.7680    -3.2680    -0.1370 c3         1 ZZP       0.123700
      2 OBE         -5.3920    -1.9960    -0.2560 os         1 ZZP      -0.307900
      3 CAK         -4.6730    -0.8960    -0.1360 ce         1 ZZP       0.262100
      4 CBF         -3.3150    -0.9010     0.1070 cf         1 ZZP      -0.462600
      5 CAW         -5.4550     0.2970    -0.2850 ce         1 ZZP      -0.307000
      6 CBB         -4.8380     1.4940    -0.1940 c2         1 ZZP       0.173900
      7 OBC         -5.4230     2.6740    -0.3100 os         1 ZZP      -0.302900
      8 CBD         -6.8240     2.7210    -0.5450 c3         1 ZZP       0.119700
      9 CBA         -3.3750     1.6070     0.0500 c6         1 ZZP      -0.121500
     10 CAZ         -2.6160     0.3180     0.2250 cf         1 ZZP       0.616600
     11 NAX         -1.3450     0.5010     0.4760 ne         1 ZZP      -0.782700
     12 CAR         -0.4160    -0.4740     0.6470 ca         1 ZZP       0.547000
     13 NAS         -0.5890    -1.7590     0.5160 nb         1 ZZP      -0.697000
     14 CAT          0.4720    -2.5890     0.7020 ca         1 ZZP       0.291300
     15 CAU          0.3030    -3.9780     0.5610 ca         1 ZZP      -0.159300
     16 CAV          1.3690    -4.8260     0.7430 ca         1 ZZP      -0.129000
     17 CAQ          2.6360    -4.3140     1.0690 ca         1 ZZP      -0.120000
     18 CAP          2.8230    -2.9590     1.2120 ca         1 ZZP      -0.163300
     19 CAO          1.7450    -2.0780     1.0320 ca         1 ZZP       0.322300
     20 NAN          1.9330    -0.7360     1.1780 nb         1 ZZP      -0.714000
     21 CAM          0.9100     0.0260     0.9970 ca         1 ZZP       0.598900
     22 NAL          1.0210     1.3910     1.1220 nu         1 ZZP      -0.824800
     23 SAI          2.4440     2.2260     1.2880 sy         1 ZZP       1.343200
     24 OAJ          2.0420     3.6190     1.2200 o          1 ZZP      -0.601800
     25 OAH          3.1590     1.7400     2.4490 o          1 ZZP      -0.601800
     26 CAG          3.3710     1.8240    -0.1590 ca         1 ZZP      -0.316500
     27 CAF          3.0600     2.4710    -1.3490 ca         1 ZZP       0.007500
     28 CAE          3.7680     2.1620    -2.4960 ca         1 ZZP      -0.199500
     29 CAB          4.7720     1.2130    -2.4190 ca         1 ZZP       0.191900
     30 FAA          5.4580     0.9160    -3.5250 f          1 ZZP      -0.135900
     31 CAC          5.0930     0.5620    -1.2420 ca         1 ZZP      -0.199500
     32 CAD          4.3800     0.8720    -0.0960 ca         1 ZZP       0.007500
     33 HAY1        -4.0050    -3.4090    -0.9040 h1         1 ZZP       0.052367
     34 HAY2        -4.3210    -3.4010     0.8500 h1         1 ZZP       0.052367
     35 HAY3        -5.5550    -4.0030    -0.2760 h1         1 ZZP       0.052367
     36 HBF         -2.7690    -1.8230     0.2160 ha         1 ZZP       0.183000
     37 HAW         -6.5150     0.1910    -0.4660 ha         1 ZZP       0.159000
     38 HBA1        -2.9240     2.1590    -0.7820 hc         1 ZZP       0.102200
     39 HBA2        -3.2100     2.2350     0.9300 hc         1 ZZP       0.102200
     40 HBD1        -7.3790     2.2590     0.2730 h1         1 ZZP       0.052033
     41 HBD2        -7.0880     3.7720    -0.6090 h1         1 ZZP       0.052033
     42 HBD3        -7.0850     2.2260    -1.4830 h1         1 ZZP       0.052033
     43 HAU         -0.6780    -4.3580     0.3060 ha         1 ZZP       0.140000
     44 HAV          1.2340    -5.8940     0.6330 ha         1 ZZP       0.134000
     45 HAQ          3.4670    -4.9920     1.2100 ha         1 ZZP       0.136000
     46 HAP          3.7930    -2.5510     1.4660 ha         1 ZZP       0.149000
     47 HAL          0.1890     1.9180     0.8650 hn         1 ZZP       0.493800
     48 HAF          2.2760     3.2140    -1.3940 ha         1 ZZP       0.161000
     49 HAD          4.6130     0.3700     0.8320 ha         1 ZZP       0.161000
     50 HAE          3.5480     2.6550    -3.4330 ha         1 ZZP       0.154500
     51 HAC          5.8850    -0.1740    -1.2180 ha         1 ZZP       0.154500
@<TRIPOS>BOND
     1     1     2 1   
     2     1    33 1   
     3     1    34 1   
     4     1    35 1   
     5     2     3 1   
     6     3     4 2   
     7     3     5 1   
     8     4    10 1   
     9     4    36 1   
    10     5     6 2   
    11     5    37 1   
    12     6     7 1   
    13     6     9 1   
    14     7     8 1   
    15     8    40 1   
    16     8    41 1   
    17     8    42 1   
    18     9    10 1   
    19     9    38 1   
    20     9    39 1   
    21    10    11 2   
    22    11    12 1   
    23    12    13 ar  
    24    12    21 ar  
    25    13    14 ar  
    26    14    15 ar  
    27    14    19 ar  
    28    15    16 ar  
    29    15    43 1   
    30    16    17 ar  
    31    16    44 1   
    32    17    18 ar  
    33    17    45 1   
    34    18    19 ar  
    35    18    46 1   
    36    19    20 ar  
    37    20    21 ar  
    38    21    22 1   
    39    22    23 1   
    40    22    47 1   
    41    23    24 2   
    42    23    25 2   
    43    23    26 1   
    44    26    27 ar  
    45    26    32 ar  
    46    27    28 ar  
    47    27    48 1   
    48    28    29 ar  
    49    28    50 1   
    50    29    30 1   
    51    29    31 ar  
    52    31    32 ar  
    53    31    51 1   
    54    32    49 1   
@<TRIPOS>SUBSTRUCTURE
     1 ZZP         1 TEMP              0 ****  ****    0 ROOT
