@<TRIPOS>MOLECULE
ZZP
   51    54     1     0     0
SMALL
No Charge or Current Charge


@<TRIPOS>ATOM
      1 CAY         -4.6940    -3.0130    -1.8140 c3         1 ZZP       0.146900
      2 OBE         -5.2670    -1.8460    -1.1970 os         1 ZZP      -0.331100
      3 CAK         -4.4660    -0.8180    -0.7430 ce         1 ZZP       0.262100
      4 CBF         -3.1190    -0.8020    -0.8350 cf         1 ZZP      -0.512600
      5 CAW         -5.1820     0.2930    -0.1480 ce         1 ZZP      -0.357000
      6 CBB         -4.5430     1.3810     0.3360 c2         1 ZZP       0.173900
      7 OBC         -5.1600     2.4670     0.9080 os         1 ZZP      -0.326100
      8 CBD         -6.5930     2.5240     1.0290 c3         1 ZZP       0.142900
      9 CBA         -3.0300     1.4860     0.2900 c6         1 ZZP      -0.121500
     10 CAZ         -2.3190     0.2920    -0.3440 cf         1 ZZP       0.616600
     11 NAX         -1.0530     0.3320    -0.6130 ne         1 ZZP      -0.782700
     12 CAR         -0.1290    -0.3800     0.1860 ca         1 ZZP       0.547000
     13 NAS         -0.1550    -1.7300     0.0990 nb         1 ZZP      -0.697000
     14 CAT          0.7400    -2.3990     0.8760 ca         1 ZZP       0.226000
     15 CAU          0.7640    -3.8070     0.8330 ca         1 ZZP      -0.076000
     16 CAV          1.6670    -4.5410     1.6190 ca         1 ZZP      -0.111000
     17 CAQ          2.5640    -3.8730     2.4650 ca         1 ZZP      -0.102000
     18 CAP          2.5580    -2.4690     2.5240 ca         1 ZZP      -0.080000
     19 CAO          1.6620    -1.7130     1.7460 ca         1 ZZP       0.257000
     20 NAN          1.6960    -0.3560     1.8320 nb         1 ZZP      -0.714000
     21 CAM          0.8200     0.3070     1.0490 ca         1 ZZP       0.598900
     22 NAL          0.8890     1.6850     1.1370 nu         1 ZZP      -0.880000
     23 SAI          2.2490     2.5750     0.8120 sy         1 ZZP       1.201600
     24 OAJ          1.6770     3.8440     0.3620 o          1 ZZP      -0.531000
     25 OAH          3.0730     2.4680     2.0180 o          1 ZZP      -0.531000
     26 CAG          3.0220     1.7380    -0.5760 ca         1 ZZP      -0.316500
     27 CAF          2.6060     2.0220    -1.8940 ca         1 ZZP       0.025500
     28 CAE          3.2020     1.3460    -2.9720 ca         1 ZZP      -0.181500
     29 CAB          4.2020     0.3930    -2.7370 ca         1 ZZP       0.227000
     30 FAA          4.7700    -0.2560    -3.7770 f          1 ZZP      -0.171000
     31 CAC          4.6160     0.1060    -1.4280 ca         1 ZZP      -0.181500
     32 CAD          4.0280     0.7770    -0.3430 ca         1 ZZP       0.025500
     33 HAY1        -4.1340    -2.7420    -2.7180 h1         1 ZZP       0.052367
     34 HAY2        -4.0180    -3.5300    -1.1220 h1         1 ZZP       0.052367
     35 HAY3        -5.4850    -3.7160    -2.1050 h1         1 ZZP       0.052367
     36 HBF         -2.5710    -1.6210    -1.2900 ha         1 ZZP       0.233000
     37 HAW         -6.2660     0.1960    -0.1210 ha         1 ZZP       0.209000
     38 HBA1        -2.7540     2.3900    -0.2660 hc         1 ZZP       0.102200
     39 HBA2        -2.6500     1.6150     1.3100 hc         1 ZZP       0.102200
     40 HBD1        -6.9670     1.6950     1.6430 h1         1 ZZP       0.052033
     41 HBD2        -6.8970     3.4640     1.5070 h1         1 ZZP       0.052033
     42 HBD3        -7.0710     2.4760     0.0420 h1         1 ZZP       0.052033
     43 HAU          0.0720    -4.3330     0.1800 ha         1 ZZP       0.122000
     44 HAV          1.6710    -5.6280     1.5710 ha         1 ZZP       0.116000
     45 HAQ          3.2640    -4.4400     3.0740 ha         1 ZZP       0.118000
     46 HAP          3.2560    -1.9580     3.1820 ha         1 ZZP       0.131000
     47 HAL          0.2090     2.1310     0.5400 hn         1 ZZP       0.549000
     48 HAF          1.8270     2.7580    -2.0880 ha         1 ZZP       0.143000
     49 HAD          4.3500     0.5420     0.6710 ha         1 ZZP       0.143000
     50 HAE          2.8870     1.5590    -3.9900 ha         1 ZZP       0.136500
     51 HAC          5.3900    -0.6370    -1.2560 ha         1 ZZP       0.136500
@<TRIPOS>BOND
     1     1     2 1   
     2     1    33 1   
     3     1    34 1   
     4     1    35 1   
     5     2     3 1   
     6     3     4 2   
     7     3     5 1   
     8     4    10 1   
     9     4    36 1   
    10     5     6 2   
    11     5    37 1   
    12     6     7 1   
    13     6     9 1   
    14     7     8 1   
    15     8    40 1   
    16     8    41 1   
    17     8    42 1   
    18     9    10 1   
    19     9    38 1   
    20     9    39 1   
    21    10    11 2   
    22    11    12 1   
    23    12    13 ar  
    24    12    21 ar  
    25    13    14 ar  
    26    14    15 ar  
    27    14    19 ar  
    28    15    16 ar  
    29    15    43 1   
    30    16    17 ar  
    31    16    44 1   
    32    17    18 ar  
    33    17    45 1   
    34    18    19 ar  
    35    18    46 1   
    36    19    20 ar  
    37    20    21 ar  
    38    21    22 1   
    39    22    23 1   
    40    22    47 1   
    41    23    24 2   
    42    23    25 2   
    43    23    26 1   
    44    26    27 ar  
    45    26    32 ar  
    46    27    28 ar  
    47    27    48 1   
    48    28    29 ar  
    49    28    50 1   
    50    29    30 1   
    51    29    31 ar  
    52    31    32 ar  
    53    31    51 1   
    54    32    49 1   
@<TRIPOS>SUBSTRUCTURE
     1 ZZP         1 TEMP              0 ****  ****    0 ROOT
