@<TRIPOS>MOLECULE
ZZQ
   57    61     1     0     0
SMALL
No Charge or Current Charge


@<TRIPOS>ATOM
      1 CBC         -2.7060     2.8120    -2.9120 c3         1 ZZQ       0.147900
      2 OBB         -3.0520     2.0420    -1.7480 os         1 ZZQ      -0.329100
      3 CBG         -3.5310     2.6250    -0.5870 ca         1 ZZQ       0.173100
      4 CBH         -3.7510     4.0170    -0.4870 ca         1 ZZQ      -0.198000
      5 CBE         -4.2770     4.5670     0.6940 ca         1 ZZQ      -0.052000
      6 CBD         -4.5970     3.7320     1.7750 ca         1 ZZQ      -0.146000
      7 CAU         -4.3810     2.3470     1.6850 ca         1 ZZQ      -0.040000
      8 CBF         -3.8230     1.7890     0.5170 ca         1 ZZQ      -0.037400
      9 NAT         -3.6380     0.3600     0.4340 n          1 ZZQ      -0.213500
     10 CAS         -4.7320    -0.4950     0.4080 c          1 ZZQ       0.571200
     11 OBA         -5.8820    -0.0830     0.5160 o          1 ZZQ      -0.529000
     12 CAR         -4.3960    -1.9180     0.2320 cc         1 ZZQ      -0.247400
     13 CAQ         -5.5900    -2.8690     0.2100 c6         1 ZZQ      -0.011200
     14 CAP         -5.2250    -4.2740    -0.3210 c6         1 ZZQ      -0.076400
     15 CAB         -3.9180    -4.7740     0.3190 c6         1 ZZQ      -0.074400
     16 CAC         -2.7520    -3.8380    -0.0640 c6         1 ZZQ      -0.032200
     17 CAD         -3.0890    -2.3680     0.1180 cd         1 ZZQ       0.193400
     18 NAE         -2.0450    -1.4520     0.1670 nd         1 ZZQ      -0.685300
     19 CAF         -2.3620    -0.1670     0.3130 cc         1 ZZQ       0.514800
     20 SAG         -0.9510     0.8980     0.4760 ss         1 ZZQ      -0.131200
     21 CAH          0.5100    -0.2160     0.1670 c3         1 ZZQ      -0.074400
     22 CAI          1.8580     0.5110     0.2240 c          1 ZZQ       0.621100
     23 OAA          1.9520     1.7110     0.4570 o          1 ZZQ      -0.561100
     24 NAJ          2.9440    -0.3220    -0.0140 ns         1 ZZQ      -0.142000
     25 CAK          4.3470    -0.0830    -0.0600 ca         1 ZZQ      -0.004000
     26 CAL          5.1840    -1.1810    -0.3260 ca         1 ZZQ      -0.151000
     27 CAM          6.5830    -1.0450    -0.3910 ca         1 ZZQ       0.252000
     28 NAN          7.3440    -2.1420    -0.6520 nb         1 ZZQ      -0.632000
     29 CAO          8.6890    -1.9430    -0.7020 ca         1 ZZQ       0.304900
     30 CAZ          9.2700    -0.6690    -0.4940 ca         1 ZZQ       0.287900
     31 NAY          8.5200     0.4350    -0.2330 nb         1 ZZQ      -0.614000
     32 CAX          7.1720     0.2470    -0.1810 ca         1 ZZQ       0.201000
     33 CAW          6.3280     1.3390     0.0840 ca         1 ZZQ      -0.052000
     34 CAV          4.9320     1.1840     0.1450 ca         1 ZZQ      -0.116000
     35 HBC1        -1.9130     3.5330    -2.6810 h1         1 ZZQ       0.045033
     36 HBC2        -2.3430     2.1510    -3.7090 h1         1 ZZQ       0.045033
     37 HBC3        -3.5790     3.3560    -3.2940 h1         1 ZZQ       0.045033
     38 HBH         -3.5290     4.6850    -1.3140 ha         1 ZZQ       0.122000
     39 HBE         -4.4470     5.6400     0.7670 ha         1 ZZQ       0.115000
     40 HBD         -5.0160     4.1570     2.6850 ha         1 ZZQ       0.123000
     41 HAU         -4.6360     1.7070     2.5260 ha         1 ZZQ       0.127000
     42 HAQ1        -5.9990    -2.9690     1.2250 hc         1 ZZQ       0.058700
     43 HAQ2        -6.4090    -2.4700    -0.4050 hc         1 ZZQ       0.058700
     44 HAP1        -6.0430    -4.9760    -0.1120 hc         1 ZZQ       0.043700
     45 HAP2        -5.1130    -4.2410    -1.4140 hc         1 ZZQ       0.043700
     46 HAB1        -4.0270    -4.8090     1.4120 hc         1 ZZQ       0.044700
     47 HAB2        -3.7000    -5.7990    -0.0110 hc         1 ZZQ       0.044700
     48 HAC1        -1.8650    -4.1030     0.5280 hc         1 ZZQ       0.060700
     49 HAC2        -2.4770    -4.0150    -1.1130 hc         1 ZZQ       0.060700
     50 HAH1         0.5260    -1.0140     0.9180 h1         1 ZZQ       0.101200
     51 HAH2         0.4150    -0.6730    -0.8260 h1         1 ZZQ       0.101200
     52 HAJ          2.6910    -1.2860    -0.1890 hn         1 ZZQ       0.158000
     53 HAL          4.7480    -2.1640    -0.4860 ha         1 ZZQ       0.131000
     54 HAV          4.3300     2.0630     0.3530 ha         1 ZZQ       0.154000
     55 HAO          9.3090    -2.8130    -0.9100 h4         1 ZZQ       0.029100
     56 HAZ         10.3500    -0.5320    -0.5390 h4         1 ZZQ       0.030100
     57 HAW          6.7640     2.3220     0.2450 ha         1 ZZQ       0.138000
@<TRIPOS>BOND
     1     1     2 1   
     2     1    35 1   
     3     1    36 1   
     4     1    37 1   
     5     2     3 1   
     6     3     4 ar  
     7     3     8 ar  
     8     4     5 ar  
     9     4    38 1   
    10     5     6 ar  
    11     5    39 1   
    12     6     7 ar  
    13     6    40 1   
    14     7     8 ar  
    15     7    41 1   
    16     8     9 1   
    17     9    10 1   
    18     9    19 1   
    19    10    11 2   
    20    10    12 1   
    21    12    13 1   
    22    12    17 2   
    23    13    14 1   
    24    13    42 1   
    25    13    43 1   
    26    14    15 1   
    27    14    44 1   
    28    14    45 1   
    29    15    16 1   
    30    15    46 1   
    31    15    47 1   
    32    16    17 1   
    33    16    48 1   
    34    16    49 1   
    35    17    18 1   
    36    18    19 2   
    37    19    20 1   
    38    20    21 1   
    39    21    22 1   
    40    21    50 1   
    41    21    51 1   
    42    22    23 2   
    43    22    24 1   
    44    24    25 1   
    45    24    52 1   
    46    25    26 ar  
    47    25    34 ar  
    48    26    27 ar  
    49    26    53 1   
    50    27    28 ar  
    51    27    32 ar  
    52    28    29 ar  
    53    29    30 ar  
    54    29    55 1   
    55    30    31 ar  
    56    30    56 1   
    57    31    32 ar  
    58    32    33 ar  
    59    33    34 ar  
    60    33    57 1   
    61    34    54 1   
@<TRIPOS>SUBSTRUCTURE
     1 ZZQ         1 TEMP              0 ****  ****    0 ROOT
