@<TRIPOS>MOLECULE
ZZQ
   57    61     1     0     0
SMALL
abcg2


@<TRIPOS>ATOM
      1 CBC         -3.6750     2.6830    -2.9110 c3         1 ZZQ       0.147900
      2 OBB         -3.5920     1.8950    -1.7360 os         1 ZZQ      -0.329100
      3 CBG         -3.5530     2.5140    -0.5520 ca         1 ZZQ       0.173100
      4 CBH         -3.6080     3.8930    -0.3640 ca         1 ZZQ      -0.198000
      5 CBE         -3.5570     4.4180     0.9220 ca         1 ZZQ      -0.052000
      6 CBD         -3.4540     3.5940     2.0320 ca         1 ZZQ      -0.146000
      7 CAU         -3.3980     2.2200     1.8490 ca         1 ZZQ      -0.040000
      8 CBF         -3.4420     1.6900     0.5730 ca         1 ZZQ      -0.037400
      9 NAT         -3.3710     0.2810     0.3800 n          1 ZZQ      -0.213500
     10 CAS         -4.5700    -0.4420     0.3240 c          1 ZZQ       0.571200
     11 OBA         -5.6320     0.1400     0.4690 o          1 ZZQ      -0.529000
     12 CAR         -4.4100    -1.8550     0.1010 cc         1 ZZQ      -0.247400
     13 CAQ         -5.6490    -2.6990     0.0190 c6         1 ZZQ      -0.011200
     14 CAP         -5.3640    -4.0780    -0.5610 c6         1 ZZQ      -0.076400
     15 CAB         -4.1240    -4.6840     0.0790 c6         1 ZZQ      -0.074400
     16 CAC         -2.9020    -3.8280    -0.2220 c6         1 ZZQ      -0.032200
     17 CAD         -3.1530    -2.3650    -0.0220 cd         1 ZZQ       0.193400
     18 NAE         -2.0280    -1.5900     0.0170 nd         1 ZZQ      -0.685300
     19 CAF         -2.1670    -0.3250     0.2020 cc         1 ZZQ       0.514800
     20 SAG         -0.7860     0.7550     0.2450 ss         1 ZZQ      -0.131200
     21 CAH          0.5290    -0.4570    -0.0190 c3         1 ZZQ      -0.074400
     22 CAI          1.8340     0.3100    -0.0350 c          1 ZZQ       0.621100
     23 OAA          1.8620     1.5250    -0.0450 o          1 ZZQ      -0.561100
     24 NAJ          2.9220    -0.4970    -0.0490 ns         1 ZZQ      -0.142000
     25 CAK          4.2750    -0.1590    -0.0920 ca         1 ZZQ      -0.004000
     26 CAL          5.1840    -1.1780     0.0850 ca         1 ZZQ      -0.151000
     27 CAM          6.5640    -0.9210     0.0370 ca         1 ZZQ       0.252000
     28 NAN          7.4390    -1.9410     0.2160 nb         1 ZZQ      -0.632000
     29 CAO          8.7060    -1.6430     0.1650 ca         1 ZZQ       0.304900
     30 CAZ          9.1670    -0.3240    -0.0680 ca         1 ZZQ       0.287900
     31 NAY          8.3480     0.6740    -0.2440 nb         1 ZZQ      -0.614000
     32 CAX          7.0270     0.3960    -0.1940 ca         1 ZZQ       0.201000
     33 CAW          6.0790     1.4230    -0.3750 ca         1 ZZQ      -0.052000
     34 CAV          4.7380     1.1630    -0.3280 ca         1 ZZQ      -0.116000
     35 HBC1        -2.8150     3.3480    -3.0120 h1         1 ZZQ       0.045033
     36 HBC2        -3.6820     1.9870    -3.7460 h1         1 ZZQ       0.045033
     37 HBC3        -4.5920     3.2760    -2.9370 h1         1 ZZQ       0.045033
     38 HBH         -3.6880     4.5690    -1.2040 ha         1 ZZQ       0.122000
     39 HBE         -3.6000     5.4920     1.0480 ha         1 ZZQ       0.115000
     40 HBD         -3.4170     4.0130     3.0290 ha         1 ZZQ       0.123000
     41 HAU         -3.3140     1.5500     2.6950 ha         1 ZZQ       0.127000
     42 HAQ1        -6.0850    -2.7990     1.0200 hc         1 ZZQ       0.058700
     43 HAQ2        -6.4020    -2.1850    -0.5830 hc         1 ZZQ       0.058700
     44 HAP1        -6.2310    -4.7250    -0.4130 hc         1 ZZQ       0.043700
     45 HAP2        -5.2120    -3.9980    -1.6410 hc         1 ZZQ       0.043700
     46 HAB1        -4.2680    -4.7540     1.1610 hc         1 ZZQ       0.044700
     47 HAB2        -3.9570    -5.7010    -0.2800 hc         1 ZZQ       0.044700
     48 HAC1        -2.0510    -4.1220     0.3970 hc         1 ZZQ       0.060700
     49 HAC2        -2.5810    -3.9770    -1.2580 hc         1 ZZQ       0.060700
     50 HAH1         0.5190    -1.2110     0.7690 h1         1 ZZQ       0.101200
     51 HAH2         0.3880    -0.9740    -0.9700 h1         1 ZZQ       0.101200
     52 HAJ          2.7400    -1.4890     0.0130 hn         1 ZZQ       0.158000
     53 HAL          4.8550    -2.1940     0.2680 ha         1 ZZQ       0.131000
     54 HAV          4.0400     1.9690    -0.4730 ha         1 ZZQ       0.154000
     55 HAO          9.4220    -2.4450     0.3070 h4         1 ZZQ       0.029100
     56 HAZ         10.2320    -0.1240    -0.1040 h4         1 ZZQ       0.030100
     57 HAW          6.4320     2.4290    -0.5580 ha         1 ZZQ       0.138000
@<TRIPOS>BOND
     1     1     2 1   
     2     1    35 1   
     3     1    36 1   
     4     1    37 1   
     5     2     3 1   
     6     3     4 ar  
     7     3     8 ar  
     8     4     5 ar  
     9     4    38 1   
    10     5     6 ar  
    11     5    39 1   
    12     6     7 ar  
    13     6    40 1   
    14     7     8 ar  
    15     7    41 1   
    16     8     9 1   
    17     9    10 1   
    18     9    19 1   
    19    10    11 2   
    20    10    12 1   
    21    12    13 1   
    22    12    17 2   
    23    13    14 1   
    24    13    42 1   
    25    13    43 1   
    26    14    15 1   
    27    14    44 1   
    28    14    45 1   
    29    15    16 1   
    30    15    46 1   
    31    15    47 1   
    32    16    17 1   
    33    16    48 1   
    34    16    49 1   
    35    17    18 1   
    36    18    19 2   
    37    19    20 1   
    38    20    21 1   
    39    21    22 1   
    40    21    50 1   
    41    21    51 1   
    42    22    23 2   
    43    22    24 1   
    44    24    25 1   
    45    24    52 1   
    46    25    26 ar  
    47    25    34 ar  
    48    26    27 ar  
    49    26    53 1   
    50    27    28 ar  
    51    27    32 ar  
    52    28    29 ar  
    53    29    30 ar  
    54    29    55 1   
    55    30    31 ar  
    56    30    56 1   
    57    31    32 ar  
    58    32    33 ar  
    59    33    34 ar  
    60    33    57 1   
    61    34    54 1   
@<TRIPOS>SUBSTRUCTURE
     1 ZZQ         1 TEMP              0 ****  ****    0 ROOT
