@<TRIPOS>MOLECULE
ZZR
   16    17     1     0     0
SMALL
No Charge or Current Charge


@<TRIPOS>ATOM
      1 NAC          1.9790    -0.6930    -0.3950 n2         1 ZZR      -0.502800
      2 NAF          1.0150    -1.5880     0.0690 na         1 ZZR      -0.144700
      3 CAI         -0.0520    -0.9020     0.5950 cc         1 ZZR       0.632000
      4 NAD         -1.3590    -1.0970     0.2900 nc         1 ZZR      -0.727000
      5 CAG         -1.7860     0.1330     0.2000 cd         1 ZZR       0.802400
      6 NAA         -3.0430     0.4030    -0.0930 nv         1 ZZR      -1.019900
      7 NAE         -0.8010     1.0940     0.2620 na         1 ZZR      -0.340500
      8 NAJ          0.3380     0.3950     0.6860 na         1 ZZR      -0.366000
      9 CAH          1.4740     0.4480    -0.0840 cc         1 ZZR       0.729400
     10 NAB          2.0600     1.6120    -0.3570 nv         1 ZZR      -1.006900
     11 HAF          1.0080    -2.5490    -0.2590 hn         1 ZZR       0.446000
     12 HAA1        -3.5600    -0.4050    -0.4160 hn         1 ZZR       0.549000
     13 HAA2        -3.2060     1.2470    -0.6280 hn         1 ZZR       0.549000
     14 HAE         -0.9090     2.0820     0.4520 hn         1 ZZR       0.382000
     15 HAB1         3.0330     1.5400    -0.6320 hn         1 ZZR       0.509000
     16 HAB2         1.8410     2.3750     0.2720 hn         1 ZZR       0.509000
@<TRIPOS>BOND
     1     1     2 1   
     2     1     9 2   
     3     2     3 2   
     4     2    11 1   
     5     3     4 1   
     6     3     8 1   
     7     4     5 2   
     8     5     6 1   
     9     5     7 1   
    10     6    12 1   
    11     6    13 1   
    12     7     8 1   
    13     7    14 1   
    14     8     9 1   
    15     9    10 1   
    16    10    15 1   
    17    10    16 1   
@<TRIPOS>SUBSTRUCTURE
     1 ZZR         1 TEMP              0 ****  ****    0 ROOT
