@<TRIPOS>MOLECULE
ZZR
   16    17     1     0     0
SMALL
abcg2


@<TRIPOS>ATOM
      1 NAC          2.1240    -0.7310    -0.0320 n2         1 ZZR      -0.502800
      2 NAF          1.0640    -1.5940     0.0480 na         1 ZZR      -0.144700
      3 CAI         -0.0740    -0.9350     0.0890 cc         1 ZZR       0.632000
      4 NAD         -1.3870    -1.1330     0.0540 nc         1 ZZR      -0.727000
      5 CAG         -1.8730     0.1020    -0.0300 cd         1 ZZR       0.802400
      6 NAA         -3.1490     0.4140    -0.0440 nv         1 ZZR      -1.019900
      7 NAE         -0.8950     1.0760    -0.1280 na         1 ZZR      -0.340500
      8 NAJ          0.2580     0.3660     0.0590 na         1 ZZR      -0.366000
      9 CAH          1.6160     0.4680    -0.0800 cc         1 ZZR       0.729400
     10 NAB          2.2650     1.6330    -0.2670 nv         1 ZZR      -1.006900
     11 HAF          1.2120    -2.5910     0.0400 hn         1 ZZR       0.446000
     12 HAA1        -3.8400    -0.3110     0.0450 hn         1 ZZR       0.549000
     13 HAA2        -3.4660     1.3620    -0.1630 hn         1 ZZR       0.549000
     14 HAE         -0.9830     1.9540     0.3720 hn         1 ZZR       0.382000
     15 HAB1         3.2690     1.5710    -0.2000 hn         1 ZZR       0.509000
     16 HAB2         1.8910     2.4460     0.1980 hn         1 ZZR       0.509000
@<TRIPOS>BOND
     1     1     2 1   
     2     1     9 2   
     3     2     3 2   
     4     2    11 1   
     5     3     4 1   
     6     3     8 1   
     7     4     5 2   
     8     5     6 1   
     9     5     7 1   
    10     6    12 1   
    11     6    13 1   
    12     7     8 1   
    13     7    14 1   
    14     8     9 1   
    15     9    10 1   
    16    10    15 1   
    17    10    16 1   
@<TRIPOS>SUBSTRUCTURE
     1 ZZR         1 TEMP              0 ****  ****    0 ROOT
