@<TRIPOS>MOLECULE
ZZS
   13    13     1     0     0
SMALL
bcc


@<TRIPOS>ATOM
      1 NAA          2.2690     0.9700    -0.0300 nv         1 ZZS      -0.960500
      2 CAG          1.1130     0.3030    -0.0330 ca         1 ZZS       0.959900
      3 NAF         -0.0140     1.0120    -0.0230 nb         1 ZZS      -0.889000
      4 NAD          1.1780    -1.0410    -0.0450 nb         1 ZZS      -0.846500
      5 CAC         -0.0010    -1.6310    -0.0480 ca         1 ZZS       0.733900
      6 NAE         -1.1850    -1.0530    -0.0380 nb         1 ZZS      -0.846500
      7 CAH         -1.1340     0.2920    -0.0260 ca         1 ZZS       0.959900
      8 NAB         -2.2960     0.9470    -0.0150 nv         1 ZZS      -0.960500
      9 HAA1         2.2810     1.9740    -0.0270 hn         1 ZZS       0.451300
     10 HAA2         3.1430     0.4740    -0.0440 hn         1 ZZS       0.451300
     11 HAC          0.0050    -2.7180    -0.0580 h5         1 ZZS       0.044100
     12 HAB1        -2.3180     1.9510    -0.0080 hn         1 ZZS       0.451300
     13 HAB2        -3.1650     0.4430    -0.0200 hn         1 ZZS       0.451300
@<TRIPOS>BOND
     1     1     2 1   
     2     1     9 1   
     3     1    10 1   
     4     2     3 ar  
     5     2     4 ar  
     6     3     7 ar  
     7     4     5 ar  
     8     5     6 ar  
     9     5    11 1   
    10     6     7 ar  
    11     7     8 1   
    12     8    12 1   
    13     8    13 1   
@<TRIPOS>SUBSTRUCTURE
     1 ZZS         1 TEMP              0 ****  ****    0 ROOT
