@<TRIPOS>MOLECULE
ZZS
   13    13     1     0     0
SMALL
No Charge or Current Charge


@<TRIPOS>ATOM
      1 NAA          2.2690     0.9800     0.0790 nv         1 ZZS      -1.070900
      2 CAG          1.1080     0.2970     0.0510 ca         1 ZZS       0.433900
      3 NAF         -0.0130     1.0230     0.0930 nb         1 ZZS      -0.363000
      4 NAD          1.1940    -1.0380    -0.0240 nb         1 ZZS      -0.320500
      5 CAC         -0.0000    -1.6670    -0.0540 ca         1 ZZS       0.207900
      6 NAE         -1.2010    -1.0500    -0.0150 nb         1 ZZS      -0.320500
      7 CAH         -1.1270     0.2850     0.0590 ca         1 ZZS       0.433900
      8 NAB         -2.2960     0.9570     0.0960 nv         1 ZZS      -1.070900
      9 HAA1         2.2350     1.9780    -0.1120 hn         1 ZZS       0.506500
     10 HAA2         3.1180     0.4940    -0.2000 hn         1 ZZS       0.506500
     11 HAC          0.0050    -2.7550    -0.1140 h5         1 ZZS       0.044100
     12 HAB1        -2.2730     1.9550    -0.0960 hn         1 ZZS       0.506500
     13 HAB2        -3.1420     0.4630    -0.1770 hn         1 ZZS       0.506500
@<TRIPOS>BOND
     1     1     2 1   
     2     1     9 1   
     3     1    10 1   
     4     2     3 ar  
     5     2     4 ar  
     6     3     7 ar  
     7     4     5 ar  
     8     5     6 ar  
     9     5    11 1   
    10     6     7 ar  
    11     7     8 1   
    12     8    12 1   
    13     8    13 1   
@<TRIPOS>SUBSTRUCTURE
     1 ZZS         1 TEMP              0 ****  ****    0 ROOT
