@<TRIPOS>MOLECULE
ZZT
   21    21     1     0     0
SMALL
bcc


@<TRIPOS>ATOM
      1 N1          -0.7340     2.2700    -0.1240 nv         1 ZZT      -0.804200
      2 C2          -0.1060     1.0380    -0.0480 ca         1 ZZT       0.122600
      3 C3           1.2780     0.9230    -0.0370 ca         1 ZZT      -0.173000
      4 C4           1.9240    -0.3160    -0.0260 ca         1 ZZT      -0.070300
      5 C5           3.4250    -0.3820    -0.0050 c3         1 ZZT      -0.041800
      6 C6           1.1470    -1.4620    -0.0180 ca         1 ZZT      -0.135000
      7 C7          -0.2460    -1.3770    -0.0220 ca         1 ZZT      -0.175000
      8 C8          -0.8750    -0.1450    -0.0420 ca         1 ZZT       0.077100
      9 O9          -2.2170     0.0420    -0.0560 os         1 ZZT      -0.327900
     10 C10         -3.0520    -1.0940    -0.0090 c3         1 ZZT       0.128700
     11 H11N        -0.1600     3.0430     0.1730 hn         1 ZZT       0.388300
     12 H12N        -1.6440     2.3140     0.3070 hn         1 ZZT       0.388300
     13 H3           1.8730     1.8310    -0.0390 ha         1 ZZT       0.129000
     14 H51C         3.8270    -0.0380     0.9500 hc         1 ZZT       0.039367
     15 H52C         3.7800    -1.4000    -0.1630 hc         1 ZZT       0.039367
     16 H53C         3.8640     0.2470    -0.7800 hc         1 ZZT       0.039367
     17 H6           1.6150    -2.4390    -0.0070 ha         1 ZZT       0.129000
     18 H7          -0.8260    -2.2900    -0.0150 ha         1 ZZT       0.132000
     19 H101        -4.0760    -0.7290    -0.0190 h1         1 ZZT       0.037367
     20 H102        -2.9030    -1.7480    -0.8730 h1         1 ZZT       0.037367
     21 H103        -2.8960    -1.6810     0.9010 h1         1 ZZT       0.037367
@<TRIPOS>BOND
     1     1     2 1   
     2     1    11 1   
     3     1    12 1   
     4     2     3 ar  
     5     2     8 ar  
     6     3     4 ar  
     7     3    13 1   
     8     4     5 1   
     9     4     6 ar  
    10     5    14 1   
    11     5    15 1   
    12     5    16 1   
    13     6     7 ar  
    14     6    17 1   
    15     7     8 ar  
    16     7    18 1   
    17     8     9 1   
    18     9    10 1   
    19    10    19 1   
    20    10    20 1   
    21    10    21 1   
@<TRIPOS>SUBSTRUCTURE
     1 ZZT         1 TEMP              0 ****  ****    0 ROOT
