@<TRIPOS>MOLECULE
ZZT
   21    21     1     0     0
SMALL
No Charge or Current Charge


@<TRIPOS>ATOM
      1 N1          -0.6690     2.3130    -0.0590 nv         1 ZZT      -1.053000
      2 C2          -0.0890     1.0610    -0.0380 ca         1 ZZT       0.261000
      3 C3           1.3130     0.9620    -0.0350 ca         1 ZZT      -0.155000
      4 C4           1.9440    -0.2950    -0.0140 ca         1 ZZT      -0.070300
      5 C5           3.4620    -0.3900    -0.0090 c3         1 ZZT      -0.041800
      6 C6           1.1600    -1.4620     0.0110 ca         1 ZZT      -0.117000
      7 C7          -0.2430    -1.3800     0.0100 ca         1 ZZT      -0.157000
      8 C8          -0.8810    -0.1190    -0.0140 ca         1 ZZT       0.077100
      9 O9          -2.2660    -0.0010    -0.0120 os         1 ZZT      -0.351100
     10 C10         -3.1380    -1.1450     0.0110 c3         1 ZZT       0.151900
     11 H11N        -0.1030     3.1440     0.0970 hn         1 ZZT       0.443500
     12 H12N        -1.6770     2.3890     0.0610 hn         1 ZZT       0.443500
     13 H3           1.9160     1.8660    -0.0510 ha         1 ZZT       0.111000
     14 H51C         3.8500    -0.3830     1.0160 hc         1 ZZT       0.039367
     15 H52C         3.8070    -1.3130    -0.4910 hc         1 ZZT       0.039367
     16 H53C         3.9170     0.4500    -0.5470 hc         1 ZZT       0.039367
     17 H6           1.6400    -2.4390     0.0310 ha         1 ZZT       0.111000
     18 H7          -0.8140    -2.3040     0.0300 ha         1 ZZT       0.114000
     19 H101        -4.1870    -0.8230     0.0080 h1         1 ZZT       0.037367
     20 H102        -2.9750    -1.7780    -0.8700 h1         1 ZZT       0.037367
     21 H103        -2.9700    -1.7460     0.9140 h1         1 ZZT       0.037367
@<TRIPOS>BOND
     1     1     2 1   
     2     1    11 1   
     3     1    12 1   
     4     2     3 ar  
     5     2     8 ar  
     6     3     4 ar  
     7     3    13 1   
     8     4     5 1   
     9     4     6 ar  
    10     5    14 1   
    11     5    15 1   
    12     5    16 1   
    13     6     7 ar  
    14     6    17 1   
    15     7     8 ar  
    16     7    18 1   
    17     8     9 1   
    18     9    10 1   
    19    10    19 1   
    20    10    20 1   
    21    10    21 1   
@<TRIPOS>SUBSTRUCTURE
     1 ZZT         1 TEMP              0 ****  ****    0 ROOT
