@<TRIPOS>MOLECULE
ZZU
   26    25     1     0     0
SMALL
No Charge or Current Charge


@<TRIPOS>ATOM
      1 O           13.0170     8.2480    20.4680 o          1 ZZU      -0.718000
      2 C           12.1860     7.3650    20.3050 c          1 ZZU       0.719000
      3 OXT         12.0210     6.4530    21.1070 o          1 ZZU      -0.718000
      4 CA          11.4670     7.2830    18.8930 c3         1 ZZU      -0.019500
      5 N           11.7290     6.0190    18.0770 n8         1 ZZU      -1.029200
      6 CB           9.9300     7.5200    18.9900 c3         1 ZZU       0.213300
      7 OB           9.3820     6.2200    19.1190 oh         1 ZZU      -0.683000
      8 CG           9.3970     8.4640    20.0950 c3         1 ZZU      -0.091400
      9 CD           9.8680     9.9250    19.9260 c3         1 ZZU       0.230800
     10 NE           9.1390    10.8310    20.8330 nu         1 ZZU      -0.913400
     11 CZ           9.3520    10.9410    22.1360 c2         1 ZZU       0.778100
     12 NH2         10.3440    10.4960    22.7460 n2         1 ZZU      -0.832100
     13 NH1          8.4740    11.8150    22.5580 nv         1 ZZU      -1.082200
     14 HA          11.8810     8.1140    18.3040 h1         1 ZZU       0.012700
     15 HN1         11.4940     6.1940    17.0900 hn         1 ZZU       0.390000
     16 HN2         12.7430     5.8440    18.0440 hn         1 ZZU       0.390000
     17 HB           9.6030     7.9270    18.0250 h1         1 ZZU      -0.030300
     18 HC          10.1700     5.7040    18.7870 ho         1 ZZU       0.473000
     19 HG1C         8.3020     8.4460    20.0560 hc         1 ZZU       0.052200
     20 HG2C         9.6800     8.0930    21.0870 hc         1 ZZU       0.052200
     21 HD1C        10.9510     9.9960    20.0920 h1         1 ZZU       0.061200
     22 HD2C         9.6780    10.2300    18.8870 h1         1 ZZU       0.061200
     23 HE           8.7610    11.6800    20.4340 hn         1 ZZU       0.450000
     24 HH2         10.3070    10.8510    23.7060 hn         1 ZZU       0.360400
     25 HH11         7.5770    11.6650    22.1170 hn         1 ZZU       0.436000
     26 HH12         8.4250    11.8860    23.5650 hn         1 ZZU       0.436000
@<TRIPOS>BOND
     1     1     2 1   
     2     2     3 1   
     3     2     4 1   
     4     4     5 1   
     5     4     6 1   
     6     4    14 1   
     7     5    15 1   
     8     5    16 1   
     9     6     7 1   
    10     6     8 1   
    11     6    17 1   
    12     7    18 1   
    13     8     9 1   
    14     8    19 1   
    15     8    20 1   
    16     9    10 1   
    17     9    21 1   
    18     9    22 1   
    19    10    11 1   
    20    10    23 1   
    21    11    12 2   
    22    11    13 1   
    23    12    24 1   
    24    13    25 1   
    25    13    26 1   
@<TRIPOS>SUBSTRUCTURE
     1 ZZU         1 TEMP              0 ****  ****    0 ROOT
