@<TRIPOS>MOLECULE
ZZU
   26    25     1     0     0
SMALL
bcc


@<TRIPOS>ATOM
      1 O           12.2720     7.7800    21.1630 o          1 ZZU      -0.823300
      2 C           12.2230     6.9150    20.2670 c          1 ZZU       0.929600
      3 OXT         12.7090     5.7690    20.3100 o          1 ZZU      -0.823300
      4 CA          11.5010     7.3370    18.9630 c3         1 ZZU      -0.019500
      5 N           11.6780     6.3290    17.9190 n8         1 ZZU      -0.918800
      6 CB           9.9740     7.4790    19.1300 c3         1 ZZU       0.190100
      7 OB           9.4350     6.2040    19.4020 oh         1 ZZU      -0.620800
      8 CG           9.4560     8.4600    20.1690 c3         1 ZZU      -0.091400
      9 CD           9.9180     9.8930    19.9190 c3         1 ZZU       0.230800
     10 NE           9.1750    10.8930    20.6500 nu         1 ZZU      -0.858200
     11 CZ           9.3830    11.1450    21.9760 c2         1 ZZU       0.778100
     12 NH2         10.3940    10.6490    22.5930 n2         1 ZZU      -0.832100
     13 NH1          8.4810    12.0370    22.5240 nv         1 ZZU      -0.971800
     14 HA          11.9080     8.3150    18.6690 h1         1 ZZU       0.012700
     15 HN1         11.6560     6.7580    17.0030 hn         1 ZZU       0.334800
     16 HN2         12.5720     5.8730    18.0290 hn         1 ZZU       0.334800
     17 HB           9.6050     7.8390    18.1510 h1         1 ZZU      -0.030300
     18 HC           9.9650     5.6170    18.8360 ho         1 ZZU       0.434000
     19 HG1C         8.3610     8.4370    20.1220 hc         1 ZZU       0.052200
     20 HG2C         9.7420     8.1490    21.1730 hc         1 ZZU       0.052200
     21 HD1C        10.9730     9.9900    20.1650 h1         1 ZZU       0.061200
     22 HD2C         9.8150    10.1360    18.8580 h1         1 ZZU       0.061200
     23 HE           8.2660    11.1130    20.2780 hn         1 ZZU       0.394800
     24 HH2         10.4260    10.9860    23.5470 hn         1 ZZU       0.360400
     25 HH11         7.5660    12.0880    22.1020 hn         1 ZZU       0.380800
     26 HH12         8.4250    12.0170    23.5290 hn         1 ZZU       0.380800
@<TRIPOS>BOND
     1     1     2 1   
     2     2     3 1   
     3     2     4 1   
     4     4     5 1   
     5     4     6 1   
     6     4    14 1   
     7     5    15 1   
     8     5    16 1   
     9     6     7 1   
    10     6     8 1   
    11     6    17 1   
    12     7    18 1   
    13     8     9 1   
    14     8    19 1   
    15     8    20 1   
    16     9    10 1   
    17     9    21 1   
    18     9    22 1   
    19    10    11 1   
    20    10    23 1   
    21    11    12 2   
    22    11    13 1   
    23    12    24 1   
    24    13    25 1   
    25    13    26 1   
@<TRIPOS>SUBSTRUCTURE
     1 ZZU         1 TEMP              0 ****  ****    0 ROOT
