@<TRIPOS>MOLECULE
ZZV
   47    50     1     0     0
SMALL
abcg2


@<TRIPOS>ATOM
      1 CAA          2.8380    -1.8620    -1.9500 c3         1 ZZV       0.214100
      2 CAB          2.9760    -3.0560     1.3330 c3         1 ZZV      -0.371100
      3 OAD          1.2700    -3.8870    -0.4650 o          1 ZZV      -0.531000
      4 OAE          0.5470    -2.0940     1.1410 o          1 ZZV      -0.531000
      5 CAH          5.1050     1.0150     0.9190 ca         1 ZZV      -0.134000
      6 CAI          4.7720     2.3680     1.1200 ca         1 ZZV       0.333900
      7 CAJ         -4.9220     0.3250     1.2660 ca         1 ZZV      -0.152500
      8 CAK         -4.8850    -1.7360     0.0010 ca         1 ZZV      -0.152500
      9 CAL         -4.1390     0.9250     0.2930 ca         1 ZZV      -0.067000
     10 CAM         -4.1010    -1.1150    -0.9630 ca         1 ZZV      -0.067000
     11 CAN          4.1620     0.1730     0.4020 ca         1 ZZV      -0.095000
     12 CAP         -0.5980    -0.1460    -1.3310 c5         1 ZZV       0.136300
     13 NAQ          3.6000     2.8660     0.8350 nb         1 ZZV      -0.615000
     14 CAR         -0.9360     2.1380    -0.9190 c          1 ZZV       0.597600
     15 CAS         -5.2810    -1.0010     1.0990 ca         1 ZZV       0.181000
     16 CAT         -3.7220     0.2160    -0.8310 ca         1 ZZV      -0.138300
     17 CAU          1.3860     2.6260     0.0170 ca         1 ZZV       0.281100
     18 CAV          0.6520     0.4340    -0.7480 ca         1 ZZV       0.010700
     19 CAW          0.4300     1.7960    -0.5100 ca         1 ZZV      -0.309600
     20 CAX          1.8460    -0.1560    -0.4600 ca         1 ZZV       0.229000
     21 CAY          2.8780     0.6660     0.0810 ca         1 ZZV      -0.024000
     22 CAZ          2.6570     2.0510     0.3240 ca         1 ZZV       0.229000
     23 NBA          2.0630    -1.5220    -0.7610 nh         1 ZZV      -0.804300
     24 NBB         -1.4790     1.0040    -1.4090 n          1 ZZV      -0.402800
     25 SBC          1.5750    -2.6900     0.3030 s6         1 ZZV       1.228100
     26 HAA          3.8770    -1.5430    -1.8610 h1         1 ZZV       0.049367
     27 HAAA         2.8230    -2.9350    -2.1200 h1         1 ZZV       0.049367
     28 HAAB         2.3940    -1.3790    -2.8190 h1         1 ZZV       0.049367
     29 HAB          3.8130    -3.3740     0.7150 h1         1 ZZV       0.103033
     30 HABA         3.2400    -2.1730     1.9100 h1         1 ZZV       0.103033
     31 HABB         2.6930    -3.8620     2.0080 h1         1 ZZV       0.103033
     32 HOAF         0.2960     4.1660    -0.0130 ho         1 ZZV       0.507000
     33 HAH          6.0940     0.6590     1.1730 ha         1 ZZV       0.128000
     34 HAI          5.5110     3.0500     1.5270 h4         1 ZZV       0.028100
     35 HAJ         -5.2530     0.8770     2.1360 ha         1 ZZV       0.133500
     36 HAK         -5.1800    -2.7720    -0.1060 ha         1 ZZV       0.133500
     37 HAL         -3.8520     1.9630     0.4130 ha         1 ZZV       0.121500
     38 HAM         -3.7840    -1.6810    -1.8300 ha         1 ZZV       0.121500
     39 HAN          4.4050    -0.8670     0.2350 ha         1 ZZV       0.116000
     40 HAO         -2.8500     0.3030    -2.7920 h1         1 ZZV       0.066200
     41 HAOA        -3.2140     1.8750    -2.0990 h1         1 ZZV       0.066200
     42 HAP         -0.4310    -0.5800    -2.3220 h1         1 ZZV       0.078200
     43 H18         -1.0200    -0.9260    -0.6930 h1         1 ZZV       0.078200
     44 OAC         -1.4670     3.2390    -0.8330 o          1 ZZV      -0.582000
     45 OAF          1.1990     3.9180     0.2480 oh         1 ZZV      -0.483100
     46 CAO         -2.8440     0.8770    -1.8630 c3         1 ZZV       0.161300
     47 FAG         -6.0410    -1.5890     2.0370 f          1 ZZV      -0.178000
@<TRIPOS>BOND
     1     1    23 1   
     2     1    26 1   
     3     1    27 1   
     4     1    28 1   
     5     2    25 1   
     6     2    29 1   
     7     2    30 1   
     8     2    31 1   
     9     3    25 2   
    10     4    25 2   
    11     5     6 ar  
    12     5    11 ar  
    13     5    33 1   
    14     6    13 ar  
    15     6    34 1   
    16     7     9 ar  
    17     7    15 ar  
    18     7    35 1   
    19     8    10 ar  
    20     8    15 ar  
    21     8    36 1   
    22     9    16 ar  
    23     9    37 1   
    24    10    16 ar  
    25    10    38 1   
    26    11    21 ar  
    27    11    39 1   
    28    12    18 1   
    29    12    24 1   
    30    12    42 1   
    31    12    43 1   
    32    13    22 ar  
    33    14    19 1   
    34    14    24 1   
    35    14    44 2   
    36    15    47 1   
    37    16    46 1   
    38    17    19 ar  
    39    17    22 ar  
    40    17    45 1   
    41    18    19 ar  
    42    18    20 ar  
    43    20    21 ar  
    44    20    23 1   
    45    21    22 ar  
    46    23    25 1   
    47    24    46 1   
    48    32    45 1   
    49    40    46 1   
    50    41    46 1   
@<TRIPOS>SUBSTRUCTURE
     1 ZZV         1 TEMP              0 ****  ****    0 ROOT
