@<TRIPOS>MOLECULE
ZZV
   47    50     1     0     0
SMALL
No Charge or Current Charge


@<TRIPOS>ATOM
      1 CAA          2.5180    -1.9030    -2.2830 c3         1 ZZV       0.214100
      2 CAB          2.8170    -2.5450     1.6570 c3         1 ZZV      -0.371100
      3 OAD          2.3000    -4.0890    -0.4240 o          1 ZZV      -0.531000
      4 OAE          0.4240    -2.6830     0.5540 o          1 ZZV      -0.531000
      5 CAH          5.3110     0.8950     0.8370 ca         1 ZZV      -0.134000
      6 CAI          4.9750     2.2000     1.2180 ca         1 ZZV       0.333900
      7 CAJ         -5.1820     0.4600     1.1480 ca         1 ZZV      -0.152500
      8 CAK         -4.9260    -1.6890     0.0340 ca         1 ZZV      -0.152500
      9 CAL         -4.3170     1.0510     0.2100 ca         1 ZZV      -0.067000
     10 CAM         -4.0610    -1.1010    -0.9060 ca         1 ZZV      -0.067000
     11 CAN          4.3310     0.0810     0.2530 ca         1 ZZV      -0.095000
     12 CAP         -0.4820    -0.2400    -1.4100 c5         1 ZZV       0.136300
     13 NAQ          3.7410     2.7190     1.0370 nb         1 ZZV      -0.615000
     14 CAR         -0.8620     2.0450    -0.7400 c          1 ZZV       0.597600
     15 CAS         -5.4840    -0.9070     1.0570 ca         1 ZZV       0.181000
     16 CAT         -3.7550     0.2730    -0.8220 ca         1 ZZV      -0.138300
     17 CAU          1.4670     2.4870     0.2380 ca         1 ZZV       0.281100
     18 CAV          0.7430     0.3780    -0.7370 ca         1 ZZV       0.010700
     19 CAW          0.5040     1.6880    -0.3710 ca         1 ZZV      -0.309600
     20 CAX          2.0010    -0.2130    -0.5040 ca         1 ZZV       0.229000
     21 CAY          3.0250     0.5950     0.0720 ca         1 ZZV      -0.024000
     22 CAZ          2.7680     1.9490     0.4680 ca         1 ZZV       0.229000
     23 NBA          2.2360    -1.5540    -0.8800 nh         1 ZZV      -0.804300
     24 NBB         -1.4180     0.9240    -1.3570 n          1 ZZV      -0.402800
     25 SBC          1.8360    -2.8460     0.2000 s6         1 ZZV       1.228100
     26 HAA          2.6560    -0.9940    -2.8840 h1         1 ZZV       0.049367
     27 HAAA         3.4400    -2.4950    -2.3550 h1         1 ZZV       0.049367
     28 HAAB         1.6890    -2.4770    -2.7170 h1         1 ZZV       0.049367
     29 HAB          3.8690    -2.6060     1.3650 h1         1 ZZV       0.103033
     30 HABA         2.5580    -1.5510     2.0330 h1         1 ZZV       0.103033
     31 HABB         2.5640    -3.3230     2.3840 h1         1 ZZV       0.103033
     32 HOAF         0.1980     3.9030     0.2970 ho         1 ZZV       0.507000
     33 HAH          6.3220     0.5270     0.9910 ha         1 ZZV       0.128000
     34 HAI          5.7170     2.8540     1.6750 h4         1 ZZV       0.028100
     35 HAJ         -5.6160     1.0590     1.9450 ha         1 ZZV       0.133500
     36 HAK         -5.1630    -2.7480    -0.0290 ha         1 ZZV       0.133500
     37 HAL         -4.0810     2.1110     0.2860 ha         1 ZZV       0.121500
     38 HAM         -3.6280    -1.7120    -1.6950 ha         1 ZZV       0.121500
     39 HAN          4.5930    -0.9260    -0.0590 ha         1 ZZV       0.116000
     40 HAO         -2.8540     0.3560    -2.7760 h1         1 ZZV       0.066200
     41 HAOA        -3.1380     1.9370    -2.0440 h1         1 ZZV       0.066200
     42 HAP         -0.2660    -0.5480    -2.4400 h1         1 ZZV       0.078200
     43 H18         -0.8780    -1.0950    -0.8490 h1         1 ZZV       0.078200
     44 OAC         -1.3930     3.1270    -0.5380 o          1 ZZV      -0.582000
     45 OAF          1.1350     3.7740     0.5720 oh         1 ZZV      -0.483100
     46 CAO         -2.8100     0.9110    -1.8300 c3         1 ZZV       0.161300
     47 FAG         -6.3140    -1.4740     1.9590 f          1 ZZV      -0.178000
@<TRIPOS>BOND
     1     1    23 1   
     2     1    26 1   
     3     1    27 1   
     4     1    28 1   
     5     2    25 1   
     6     2    29 1   
     7     2    30 1   
     8     2    31 1   
     9     3    25 2   
    10     4    25 2   
    11     5     6 ar  
    12     5    11 ar  
    13     5    33 1   
    14     6    13 ar  
    15     6    34 1   
    16     7     9 ar  
    17     7    15 ar  
    18     7    35 1   
    19     8    10 ar  
    20     8    15 ar  
    21     8    36 1   
    22     9    16 ar  
    23     9    37 1   
    24    10    16 ar  
    25    10    38 1   
    26    11    21 ar  
    27    11    39 1   
    28    12    18 1   
    29    12    24 1   
    30    12    42 1   
    31    12    43 1   
    32    13    22 ar  
    33    14    19 1   
    34    14    24 1   
    35    14    44 2   
    36    15    47 1   
    37    16    46 1   
    38    17    19 ar  
    39    17    22 ar  
    40    17    45 1   
    41    18    19 ar  
    42    18    20 ar  
    43    20    21 ar  
    44    20    23 1   
    45    21    22 ar  
    46    23    25 1   
    47    24    46 1   
    48    32    45 1   
    49    40    46 1   
    50    41    46 1   
@<TRIPOS>SUBSTRUCTURE
     1 ZZV         1 TEMP              0 ****  ****    0 ROOT
