@<TRIPOS>MOLECULE
ZZW
   39    42     1     0     0
SMALL
No Charge or Current Charge


@<TRIPOS>ATOM
      1 OAA          4.9100     0.0120     1.3920 o          1 ZZW      -0.581100
      2 OAB          5.7250     2.6850     1.0880 oh         1 ZZW      -0.427100
      3 CAD         -0.4750    -4.7530     0.5440 ca         1 ZZW      -0.141000
      4 CAE         -1.6870    -4.5120    -0.1500 ca         1 ZZW      -0.073000
      5 CAF         -3.4460     3.0780    -0.5540 ca         1 ZZW      -0.150500
      6 CAG         -3.4430     1.5160     1.3110 ca         1 ZZW      -0.150500
      7 CAH         -2.8760     2.0950    -1.3810 ca         1 ZZW      -0.067000
      8 CAI         -2.8730     0.5300     0.4860 ca         1 ZZW      -0.067000
      9 CAJ          0.5180    -3.7530     0.6360 ca         1 ZZW      -0.042000
     10 CAK         -1.9280    -3.2640    -0.7670 ca         1 ZZW      -0.144000
     11 CAL          0.8740     0.9400    -1.0140 ca         1 ZZW       0.325900
     12 CAM          2.3400    -0.9460     0.4460 ca         1 ZZW      -0.034000
     13 CAN         -1.9580    -0.2460    -1.7690 c3         1 ZZW       0.131900
     14 NAO          2.0980     1.2920    -0.5330 nb         1 ZZW      -0.660000
     15 NAP          4.6070     2.0600     0.4110 ns         1 ZZW      -0.367400
     16 CAQ          4.2010     0.7660     0.7290 c          1 ZZW       0.513600
     17 CAR         -3.7270     2.7860     0.7890 ca         1 ZZW       0.183000
     18 CAS         -2.5820     0.8160    -0.8650 ca         1 ZZW      -0.140300
     19 CAT          2.8270     0.3640     0.1870 ca         1 ZZW       0.238500
     20 CAU          0.2740    -2.5120     0.0180 cp         1 ZZW      -0.088000
     21 CAV          1.0750    -1.2940    -0.0610 cp         1 ZZW      -0.069000
     22 CAW         -0.9250    -2.2920    -0.6630 ca         1 ZZW      -0.000200
     23 CAX          0.3670    -0.3450    -0.7840 ca         1 ZZW      -0.042200
     24 NAY         -0.8380    -0.9710    -1.1410 na         1 ZZW      -0.083600
     25 HOAB         6.2650     3.0530     0.3490 ho         1 ZZW       0.445000
     26 HAD         -0.3080    -5.7200     1.0140 ha         1 ZZW       0.119000
     27 HAE         -2.4400    -5.2950    -0.2080 ha         1 ZZW       0.115000
     28 HAF         -3.6710     4.0650    -0.9510 ha         1 ZZW       0.136500
     29 HAG         -3.6650     1.2960     2.3520 ha         1 ZZW       0.136500
     30 HAH         -2.6610     2.3290    -2.4220 ha         1 ZZW       0.121000
     31 HAI         -2.6590    -0.4540     0.9000 ha         1 ZZW       0.121000
     32 HAJ          1.4470    -3.9360     1.1710 ha         1 ZZW       0.124000
     33 HAK         -2.8570    -3.0760    -1.2980 ha         1 ZZW       0.119000
     34 HAL          0.3180     1.6900    -1.5760 h4         1 ZZW       0.026100
     35 HAM          2.9250    -1.6600     1.0190 ha         1 ZZW       0.152000
     36 HAN         -2.7340    -0.9600    -2.0670 h1         1 ZZW       0.067200
     37 HANA        -1.5840     0.2240    -2.6870 h1         1 ZZW       0.067200
     38 HNAP         3.9200     2.6830    -0.0170 hn         1 ZZW       0.359500
     39 FAC         -4.2750     3.7320     1.5820 f          1 ZZW      -0.174000
@<TRIPOS>BOND
     1     1    16 2   
     2     2    15 1   
     3     2    25 1   
     4     3     4 ar  
     5     3     9 ar  
     6     3    26 1   
     7     4    10 ar  
     8     4    27 1   
     9     5     7 ar  
    10     5    17 ar  
    11     5    28 1   
    12     6     8 ar  
    13     6    17 ar  
    14     6    29 1   
    15     7    18 ar  
    16     7    30 1   
    17     8    18 ar  
    18     8    31 1   
    19     9    20 ar  
    20     9    32 1   
    21    10    22 ar  
    22    10    33 1   
    23    11    14 ar  
    24    11    23 ar  
    25    11    34 1   
    26    12    19 ar  
    27    12    21 ar  
    28    12    35 1   
    29    13    18 1   
    30    13    24 1   
    31    13    36 1   
    32    13    37 1   
    33    14    19 ar  
    34    15    16 1   
    35    15    38 1   
    36    16    19 1   
    37    17    39 1   
    38    20    21 1   
    39    20    22 ar  
    40    21    23 ar  
    41    22    24 1   
    42    23    24 1   
@<TRIPOS>SUBSTRUCTURE
     1 ZZW         1 TEMP              0 ****  ****    0 ROOT
