@<TRIPOS>MOLECULE
ZZW
   39    42     1     0     0
SMALL
abcg2


@<TRIPOS>ATOM
      1 OAA          4.9000     0.1050     1.3640 o          1 ZZW      -0.581100
      2 OAB          5.6450     2.6400     0.7540 oh         1 ZZW      -0.427100
      3 CAD         -0.4690    -4.6530     0.5720 ca         1 ZZW      -0.141000
      4 CAE         -1.6600    -4.3470    -0.1020 ca         1 ZZW      -0.073000
      5 CAF         -3.3790     3.0550    -0.4420 ca         1 ZZW      -0.150500
      6 CAG         -3.7730     1.3060     1.1810 ca         1 ZZW      -0.150500
      7 CAH         -2.7110     2.1390    -1.2450 ca         1 ZZW      -0.067000
      8 CAI         -3.1080     0.4080     0.3630 ca         1 ZZW      -0.067000
      9 CAJ          0.5390    -3.7140     0.6790 ca         1 ZZW      -0.042000
     10 CAK         -1.8730    -3.1100    -0.6830 ca         1 ZZW      -0.144000
     11 CAL          0.9190     0.9420    -0.9350 ca         1 ZZW       0.325900
     12 CAM          2.4120    -0.9100     0.4820 ca         1 ZZW      -0.034000
     13 CAN         -1.8540    -0.1720    -1.7480 c3         1 ZZW       0.131900
     14 NAO          2.1180     1.2640    -0.4960 nb         1 ZZW      -0.660000
     15 NAP          4.5480     2.0310     0.2250 ns         1 ZZW      -0.367400
     16 CAQ          4.1930     0.8120     0.6660 c          1 ZZW       0.513600
     17 CAR         -3.8990     2.6180     0.7590 ca         1 ZZW       0.183000
     18 CAS         -2.5710     0.8130    -0.8570 ca         1 ZZW      -0.140300
     19 CAT          2.8460     0.3720     0.1890 ca         1 ZZW       0.238500
     20 CAU          0.3480    -2.4600     0.1020 cp         1 ZZW      -0.088000
     21 CAV          1.1520    -1.2720     0.0260 cp         1 ZZW      -0.069000
     22 CAW         -0.8520    -2.1670    -0.5760 ca         1 ZZW      -0.000200
     23 CAX          0.3980    -0.3280    -0.6940 ca         1 ZZW      -0.042200
     24 NAY         -0.7980    -0.8780    -1.0590 na         1 ZZW      -0.083600
     25 HOAB         6.3610     2.5010     0.1210 ho         1 ZZW       0.445000
     26 HAD         -0.3440    -5.6320     1.0140 ha         1 ZZW       0.119000
     27 HAE         -2.4360    -5.0980    -0.1710 ha         1 ZZW       0.115000
     28 HAF         -3.4840     4.0890    -0.7440 ha         1 ZZW       0.136500
     29 HAG         -4.1910     0.9910     2.1280 ha         1 ZZW       0.136500
     30 HAH         -2.2910     2.4730    -2.1860 ha         1 ZZW       0.121000
     31 HAI         -3.0110    -0.6200     0.6910 ha         1 ZZW       0.121000
     32 HAJ          1.4580    -3.9470     1.2020 ha         1 ZZW       0.124000
     33 HAK         -2.8000    -2.8950    -1.1980 ha         1 ZZW       0.119000
     34 HAL          0.3690     1.7000    -1.4810 h4         1 ZZW       0.026100
     35 HAM          3.0340    -1.5930     1.0440 ha         1 ZZW       0.152000
     36 HAN         -2.5480    -0.9120    -2.1460 h1         1 ZZW       0.067200
     37 HANA        -1.4340     0.3400    -2.6160 h1         1 ZZW       0.067200
     38 HNAP         3.8730     2.6410    -0.2150 hn         1 ZZW       0.359500
     39 FAC         -4.5460     3.4910     1.5470 f          1 ZZW      -0.174000
@<TRIPOS>BOND
     1     1    16 2   
     2     2    15 1   
     3     2    25 1   
     4     3     4 ar  
     5     3     9 ar  
     6     3    26 1   
     7     4    10 ar  
     8     4    27 1   
     9     5     7 ar  
    10     5    17 ar  
    11     5    28 1   
    12     6     8 ar  
    13     6    17 ar  
    14     6    29 1   
    15     7    18 ar  
    16     7    30 1   
    17     8    18 ar  
    18     8    31 1   
    19     9    20 ar  
    20     9    32 1   
    21    10    22 ar  
    22    10    33 1   
    23    11    14 ar  
    24    11    23 ar  
    25    11    34 1   
    26    12    19 ar  
    27    12    21 ar  
    28    12    35 1   
    29    13    18 1   
    30    13    24 1   
    31    13    36 1   
    32    13    37 1   
    33    14    19 ar  
    34    15    16 1   
    35    15    38 1   
    36    16    19 1   
    37    17    39 1   
    38    20    21 1   
    39    20    22 ar  
    40    21    23 ar  
    41    22    24 1   
    42    23    24 1   
@<TRIPOS>SUBSTRUCTURE
     1 ZZW         1 TEMP              0 ****  ****    0 ROOT
