@<TRIPOS>MOLECULE
ZZY
   34    36     1     0     0
SMALL
No Charge or Current Charge


@<TRIPOS>ATOM
      1 O11          3.8140    -2.2880     0.8110 o          1 ZZY      -0.607100
      2 C10          4.1920    -1.3110     0.1870 c          1 ZZY       0.623700
      3 N12          5.4500    -1.2940    -0.3020 nt         1 ZZY      -0.599000
      4 C5           3.3050    -0.1250    -0.0590 ca         1 ZZY      -0.201600
      5 C3           1.9810    -0.1090     0.4450 ca         1 ZZY      -0.025000
      6 C1           1.2090     1.0320     0.1750 ca         1 ZZY      -0.090200
      7 C6           3.7660     0.9980    -0.7920 ca         1 ZZY       0.350900
      8 N4           3.0050     2.0940    -1.0400 nb         1 ZZY      -0.632000
      9 C2           1.7600     2.0570    -0.5430 ca         1 ZZY       0.386800
     10 C8           0.7720     3.0690    -0.6560 cc         1 ZZY      -0.330800
     11 C7          -0.3650     2.6170     0.0070 cd         1 ZZY      -0.087100
     12 N9          -0.1130     1.3180     0.5370 na         1 ZZY      -0.203900
     13 S13         -1.2730     0.3560     1.4510 sy         1 ZZY       1.184700
     14 O16         -0.5020    -0.2490     2.5480 o          1 ZZY      -0.505000
     15 O15         -2.4330     1.2270     1.6900 o          1 ZZY      -0.505000
     16 C14         -1.7390    -0.9950     0.3130 ca         1 ZZY      -0.242500
     17 C21         -2.7500    -0.8500    -0.6900 ca         1 ZZY      -0.069200
     18 N22         -3.4850     0.4300    -0.9280 no         1 ZZY       0.691200
     19 O23         -4.7220     0.3830    -0.9280 o          1 ZZY      -0.375000
     20 O24         -2.8360     1.3860    -1.3660 o          1 ZZY      -0.375000
     21 C20         -1.0940    -2.2480     0.4560 ca         1 ZZY      -0.016000
     22 C18         -1.4350    -3.3300    -0.3710 ca         1 ZZY      -0.094000
     23 C17         -2.4300    -3.1870    -1.3480 ca         1 ZZY      -0.055000
     24 C19         -3.0850    -1.9560    -1.5040 ca         1 ZZY      -0.078000
     25 H121         6.0470    -2.0910    -0.1380 hn         1 ZZY       0.316000
     26 H122         5.7920    -0.5000    -0.8220 hn         1 ZZY       0.316000
     27 H3           1.5860    -0.9440     1.0190 ha         1 ZZY       0.147000
     28 H6           4.7750     1.0350    -1.2000 h4         1 ZZY       0.018100
     29 H8           0.8800     4.0230    -1.1630 ha         1 ZZY       0.225000
     30 H7          -1.3260     3.1140     0.1380 h4         1 ZZY       0.251000
     31 H20         -0.3300    -2.4020     1.2160 ha         1 ZZY       0.161000
     32 H19         -3.8530    -1.8580    -2.2690 ha         1 ZZY       0.150000
     33 H18         -0.9310    -4.2860    -0.2480 ha         1 ZZY       0.138000
     34 H17         -2.6940    -4.0290    -1.9840 ha         1 ZZY       0.135000
@<TRIPOS>BOND
     1     1     2 2   
     2     2     3 1   
     3     2     4 1   
     4     3    25 1   
     5     3    26 1   
     6     4     5 ar  
     7     4     7 ar  
     8     5     6 ar  
     9     5    27 1   
    10     6     9 ar  
    11     6    12 1   
    12     7     8 ar  
    13     7    28 1   
    14     8     9 ar  
    15     9    10 1   
    16    10    11 2   
    17    10    29 1   
    18    11    12 1   
    19    11    30 1   
    20    12    13 1   
    21    13    14 2   
    22    13    15 2   
    23    13    16 1   
    24    16    17 ar  
    25    16    21 ar  
    26    17    18 1   
    27    17    24 ar  
    28    18    19 1   
    29    18    20 1   
    30    21    22 ar  
    31    21    31 1   
    32    22    23 ar  
    33    22    33 1   
    34    23    24 ar  
    35    23    34 1   
    36    24    32 1   
@<TRIPOS>SUBSTRUCTURE
     1 ZZY         1 TEMP              0 ****  ****    0 ROOT
