@<TRIPOS>MOLECULE
ZZY
   34    36     1     0     0
SMALL
bcc


@<TRIPOS>ATOM
      1 O11          3.6630    -2.1780     0.9480 o          1 ZZY      -0.607100
      2 C10          3.9820    -1.3430     0.1130 c          1 ZZY       0.690700
      3 N12          5.0590    -1.4730    -0.6740 nt         1 ZZY      -0.666000
      4 C5           3.1630    -0.1070    -0.0720 ca         1 ZZY      -0.266900
      5 C3           1.8690    -0.1150     0.4370 ca         1 ZZY      -0.043000
      6 C1           1.1300     1.0340     0.2540 ca         1 ZZY      -0.155500
      7 C6           3.6490     1.0550    -0.6890 ca         1 ZZY       0.416200
      8 N4           2.9500     2.1640    -0.8430 nb         1 ZZY      -0.632000
      9 C2           1.7010     2.1520    -0.3860 ca         1 ZZY       0.452100
     10 C8           0.7150     3.1880    -0.4130 cc         1 ZZY      -0.280800
     11 C7          -0.3980     2.6930     0.1740 cd         1 ZZY      -0.037100
     12 N9          -0.1700     1.3850     0.5840 na         1 ZZY      -0.203900
     13 S13         -1.2880     0.4110     1.3710 sy         1 ZZY       1.326300
     14 O16         -0.6100    -0.1400     2.5220 o          1 ZZY      -0.575800
     15 O15         -2.4880     1.2010     1.5180 o          1 ZZY      -0.575800
     16 C14         -1.6000    -0.9450     0.2600 ca         1 ZZY      -0.242500
     17 C21         -2.5000    -0.8890    -0.8060 ca         1 ZZY      -0.069200
     18 N22         -3.1250     0.3550    -1.2320 no         1 ZZY       0.311200
     19 O23         -4.3090     0.3360    -1.4440 o          1 ZZY      -0.185000
     20 O24         -2.4030     1.3090    -1.3800 o          1 ZZY      -0.185000
     21 C20         -1.0340    -2.1670     0.5900 ca         1 ZZY      -0.034000
     22 C18         -1.3170    -3.2990    -0.1630 ca         1 ZZY      -0.112000
     23 C17         -2.2030    -3.2250    -1.2220 ca         1 ZZY      -0.073000
     24 C19         -2.8120    -2.0180    -1.5360 ca         1 ZZY      -0.096000
     25 H121         5.6180    -2.3090    -0.6120 hn         1 ZZY       0.316000
     26 H122         5.2370    -0.8720    -1.4590 hn         1 ZZY       0.316000
     27 H3           1.4970    -0.9950     0.9420 ha         1 ZZY       0.165000
     28 H6           4.6680     1.0950    -1.0560 h4         1 ZZY       0.018100
     29 H8           0.8260     4.1800    -0.8200 ha         1 ZZY       0.175000
     30 H7          -1.3490     3.1660     0.3520 h4         1 ZZY       0.201000
     31 H20         -0.3840    -2.2580     1.4480 ha         1 ZZY       0.179000
     32 H19         -3.5100    -1.9600    -2.3590 ha         1 ZZY       0.168000
     33 H18         -0.8520    -4.2390     0.1000 ha         1 ZZY       0.156000
     34 H17         -2.4360    -4.1050    -1.8050 ha         1 ZZY       0.153000
@<TRIPOS>BOND
     1     1     2 2   
     2     2     3 1   
     3     2     4 1   
     4     3    25 1   
     5     3    26 1   
     6     4     5 ar  
     7     4     7 ar  
     8     5     6 ar  
     9     5    27 1   
    10     6     9 ar  
    11     6    12 1   
    12     7     8 ar  
    13     7    28 1   
    14     8     9 ar  
    15     9    10 1   
    16    10    11 2   
    17    10    29 1   
    18    11    12 1   
    19    11    30 1   
    20    12    13 1   
    21    13    14 2   
    22    13    15 2   
    23    13    16 1   
    24    16    17 ar  
    25    16    21 ar  
    26    17    18 1   
    27    17    24 ar  
    28    18    19 1   
    29    18    20 1   
    30    21    22 ar  
    31    21    31 1   
    32    22    23 ar  
    33    22    33 1   
    34    23    24 ar  
    35    23    34 1   
    36    24    32 1   
@<TRIPOS>SUBSTRUCTURE
     1 ZZY         1 TEMP              0 ****  ****    0 ROOT
