@<TRIPOS>MOLECULE
ZZZ
   23    24     1     0     0
SMALL
No Charge or Current Charge


@<TRIPOS>ATOM
      1 C7          -2.1200     1.3710    -0.8220 c6         1 ZZZ       0.188800
      2 N8          -0.8080     1.7700    -0.2570 nu         1 ZZZ      -0.813200
      3 C9           0.2000     0.8670    -0.2070 cc         1 ZZZ       0.414600
      4 N1           1.4080     1.4510     0.0070 nc         1 ZZZ      -0.753300
      5 C2           2.3960     0.6030     0.0510 cd         1 ZZZ       0.735800
      6 N2           3.5810     1.1450     0.2670 nv         1 ZZZ      -1.039200
      7 C10          0.0100    -0.4960    -0.3750 cd         1 ZZZ      -0.215200
      8 C4           1.1920    -1.3970    -0.3120 c          1 ZZZ       0.604200
      9 N3           2.3440    -0.7270    -0.0890 ns         1 ZZZ      -0.443400
     10 O4           1.1580    -2.6130    -0.4420 o          1 ZZZ      -0.547000
     11 N5          -1.2760    -1.0130    -0.5960 nu         1 ZZZ      -0.691200
     12 C6          -2.4790    -0.1130    -0.4510 c6         1 ZZZ       0.050500
     13 C6A         -3.1010    -0.1880     0.9700 c          1 ZZZ       0.580900
     14 O6A         -3.4750    -1.2390     1.4860 o          1 ZZZ      -0.472100
     15 H7C1        -2.0780     1.4530    -1.9180 h1         1 ZZZ       0.046700
     16 H7C2        -2.9170     2.0490    -0.4820 h1         1 ZZZ       0.046700
     17 H8          -0.4810     2.7310    -0.3460 hn         1 ZZZ       0.500000
     18 H2N1         3.5250     2.1150     0.5490 hn         1 ZZZ       0.494500
     19 H2N2         4.2600     0.5880     0.7700 hn         1 ZZZ       0.494500
     20 H3           3.1860    -1.2750    -0.0560 hn         1 ZZZ       0.325500
     21 H5          -1.3910    -2.0340    -0.5990 hn         1 ZZZ       0.434000
     22 H6          -3.2820    -0.4400    -1.1280 h1         1 ZZZ       0.079700
     23 H6A         -3.1980     0.7750     1.5180 h4         1 ZZZ      -0.023800
@<TRIPOS>BOND
     1     1     2 1   
     2     1    12 1   
     3     1    15 1   
     4     1    16 1   
     5     2     3 1   
     6     2    17 1   
     7     3     4 1   
     8     3     7 2   
     9     4     5 2   
    10     5     6 1   
    11     5     9 1   
    12     6    18 1   
    13     6    19 1   
    14     7     8 1   
    15     7    11 1   
    16     8     9 1   
    17     8    10 2   
    18     9    20 1   
    19    11    12 1   
    20    11    21 1   
    21    12    13 1   
    22    12    22 1   
    23    13    14 2   
    24    13    23 1   
@<TRIPOS>SUBSTRUCTURE
     1 ZZZ         1 TEMP              0 ****  ****    0 ROOT
