@<TRIPOS>MOLECULE
ZZZ
   23    24     1     0     0
SMALL
bcc


@<TRIPOS>ATOM
      1 C7          -2.1500     1.2510    -0.9450 c6         1 ZZZ       0.188800
      2 N8          -0.9170     1.6980    -0.3500 nu         1 ZZZ      -0.758000
      3 C9           0.1230     0.8350    -0.2440 cc         1 ZZZ       0.414600
      4 N1           1.3140     1.3900     0.0840 nc         1 ZZZ      -0.753300
      5 C2           2.3350     0.5870     0.1930 cd         1 ZZZ       0.735800
      6 N2           3.5590     1.0840     0.4500 nv         1 ZZZ      -0.928800
      7 C10         -0.0810    -0.5240    -0.4120 cd         1 ZZZ      -0.215200
      8 C4           1.0240    -1.4010    -0.2710 c          1 ZZZ       0.746700
      9 N3           2.2280    -0.7500     0.0110 ns         1 ZZZ      -0.510400
     10 O4           1.0150    -2.6230    -0.3940 o          1 ZZZ      -0.622500
     11 N5          -1.3630    -1.0750    -0.6550 nu         1 ZZZ      -0.636000
     12 C6          -2.4360    -0.1530    -0.3950 c6         1 ZZZ       0.050500
     13 C6A         -2.7220    -0.0270     1.0830 c          1 ZZZ       0.580900
     14 O6A         -2.1860    -0.6660     1.9480 o          1 ZZZ      -0.472100
     15 H7C1        -2.0950     1.1980    -2.0370 h1         1 ZZZ       0.046700
     16 H7C2        -2.9460     1.9510    -0.6900 h1         1 ZZZ       0.046700
     17 H8          -0.6950     2.6810    -0.3670 hn         1 ZZZ       0.444800
     18 H2N1         3.6040     2.0410     0.7580 hn         1 ZZZ       0.439300
     19 H2N2         4.2840     0.4800     0.8000 hn         1 ZZZ       0.439300
     20 H3           3.0480    -1.3350     0.0950 hn         1 ZZZ       0.325500
     21 H5          -1.4410    -1.4630    -1.5850 hn         1 ZZZ       0.378800
     22 H6          -3.3550    -0.5250    -0.8610 h1         1 ZZZ       0.079700
     23 H6A         -3.4940     0.7280     1.3220 h4         1 ZZZ      -0.023800
@<TRIPOS>BOND
     1     1     2 1   
     2     1    12 1   
     3     1    15 1   
     4     1    16 1   
     5     2     3 1   
     6     2    17 1   
     7     3     4 1   
     8     3     7 2   
     9     4     5 2   
    10     5     6 1   
    11     5     9 1   
    12     6    18 1   
    13     6    19 1   
    14     7     8 1   
    15     7    11 1   
    16     8     9 1   
    17     8    10 2   
    18     9    20 1   
    19    11    12 1   
    20    11    21 1   
    21    12    13 1   
    22    12    22 1   
    23    13    14 2   
    24    13    23 1   
@<TRIPOS>SUBSTRUCTURE
     1 ZZZ         1 TEMP              0 ****  ****    0 ROOT
