@<TRIPOS>MOLECULE
R00
   47    48     1     0     0
SMALL
bcc


@<TRIPOS>ATOM
      1 N           -2.5080     1.3220     0.9300 n8         1 R00      -0.899800
      2 C1          -2.2710     0.1890     0.0510 c3         1 R00       0.157500
      3 C2          -0.8990     0.1930    -0.6400 c3         1 R00       0.137100
      4 O1          -0.7890     1.3130    -1.4800 oh         1 R00      -0.660800
      5 C3          -3.3950     0.1070    -0.9910 c3         1 R00      -0.023100
      6 C4          -4.7410    -0.1520    -0.3790 ca         1 R00      -0.046300
      7 C5          -5.5840     0.8960    -0.0160 ca         1 R00      -0.119500
      8 C6          -5.1700    -1.4560    -0.1390 ca         1 R00      -0.119500
      9 C7          -6.8210     0.6510     0.5650 ca         1 R00      -0.138000
     10 C8          -6.4040    -1.7090     0.4460 ca         1 R00      -0.138000
     11 C9          -7.2350    -0.6540     0.8010 ca         1 R00      -0.147000
     12 C10          0.2480     0.1520     0.3650 c3         1 R00       0.142800
     13 N2           1.5260     0.0750    -0.3250 n7         1 R00      -0.813200
     14 C11          2.5750     0.9240     0.1870 c3         1 R00       0.051500
     15 C            2.3040     2.4240    -0.0710 c          1 R00       0.931600
     16 O            1.3890     2.7410    -0.8680 o          1 R00      -0.820800
     17 C13          3.9100     0.5610    -0.4870 c3         1 R00      -0.033100
     18 C14          4.3400    -0.8550    -0.2190 ca         1 R00      -0.059300
     19 C15          4.1690    -1.8560    -1.1740 ca         1 R00      -0.131500
     20 C16          4.9000    -1.2010     1.0110 ca         1 R00      -0.131500
     21 C17          4.5450    -3.1680    -0.9090 ca         1 R00      -0.137500
     22 C18          5.2780    -2.5090     1.2790 ca         1 R00      -0.137500
     23 C19          5.1000    -3.4980     0.3190 ca         1 R00      -0.152000
     24 OXT          3.0500     3.2170     0.5270 o          1 R00      -0.820800
     25 H1          -1.8810     1.2880     1.7240 hn         1 R00       0.346800
     26 H           -2.3210    -0.7200     0.6640 h1         1 R00       0.037700
     27 H3          -0.8370    -0.7350    -1.2370 h1         1 R00       0.018700
     28 H4           0.0800     1.7480    -1.3050 ho         1 R00       0.496000
     29 H5          -3.4170     1.0370    -1.5670 hc         1 R00       0.054700
     30 H6          -3.1600    -0.6930    -1.6990 hc         1 R00       0.054700
     31 H7          -5.2690     1.9170    -0.1970 ha         1 R00       0.129500
     32 H8          -4.5310    -2.2870    -0.4180 ha         1 R00       0.129500
     33 H9          -7.4630     1.4800     0.8340 ha         1 R00       0.117500
     34 H10         -6.7190    -2.7300     0.6190 ha         1 R00       0.117500
     35 H11         -8.1990    -0.8490     1.2540 ha         1 R00       0.115000
     36 H12          0.2210     1.0560     0.9810 h1         1 R00       0.024700
     37 H13          0.1010    -0.6890     1.0540 h1         1 R00       0.024700
     38 H14          1.8350    -0.8870    -0.3470 hn         1 R00       0.338800
     39 H15          2.7190     0.8090     1.2750 h1         1 R00       0.009700
     40 H16          3.8170     0.7230    -1.5640 hc         1 R00       0.065200
     41 H17          4.6720     1.2500    -0.1190 hc         1 R00       0.065200
     42 H18          3.7400    -1.6030    -2.1360 ha         1 R00       0.136000
     43 H19          5.0440    -0.4360     1.7650 ha         1 R00       0.136000
     44 H20          4.4040    -3.9300    -1.6640 ha         1 R00       0.116500
     45 H21          5.7160    -2.7570     2.2370 ha         1 R00       0.116500
     46 H22          5.3960    -4.5180     0.5270 ha         1 R00       0.114000
     47 H2          -2.2850     2.1770     0.4320 hn         1 R00       0.346800
@<TRIPOS>BOND
     1     1     2 1   
     2     1    25 1   
     3     1    47 1   
     4     2     3 1   
     5     2     5 1   
     6     2    26 1   
     7     3     4 1   
     8     3    12 1   
     9     3    27 1   
    10     4    28 1   
    11     5     6 1   
    12     5    29 1   
    13     5    30 1   
    14     6     7 ar  
    15     6     8 ar  
    16     7     9 ar  
    17     7    31 1   
    18     8    10 ar  
    19     8    32 1   
    20     9    11 ar  
    21     9    33 1   
    22    10    11 ar  
    23    10    34 1   
    24    11    35 1   
    25    12    13 1   
    26    12    36 1   
    27    12    37 1   
    28    13    14 1   
    29    13    38 1   
    30    14    15 1   
    31    14    17 1   
    32    14    39 1   
    33    15    16 1   
    34    15    24 1   
    35    17    18 1   
    36    17    40 1   
    37    17    41 1   
    38    18    19 ar  
    39    18    20 ar  
    40    19    21 ar  
    41    19    42 1   
    42    20    22 ar  
    43    20    43 1   
    44    21    23 ar  
    45    21    44 1   
    46    22    23 ar  
    47    22    45 1   
    48    23    46 1   
@<TRIPOS>SUBSTRUCTURE
     1 R00         1 TEMP              0 ****  ****    0 ROOT
