@<TRIPOS>MOLECULE
R00
   47    48     1     0     0
SMALL
No Charge or Current Charge


@<TRIPOS>ATOM
      1 N           -2.5350     1.4210     0.9590 n8         1 R00      -0.899800
      2 C1          -2.3240     0.2560     0.0610 c3         1 R00       0.157500
      3 C2          -0.9150     0.2870    -0.6260 c3         1 R00       0.137100
      4 O1          -0.7290     1.5190    -1.3560 oh         1 R00      -0.660800
      5 C3          -3.4780     0.1470    -0.9750 c3         1 R00      -0.023100
      6 C4          -4.8430    -0.1340    -0.3490 ca         1 R00      -0.046300
      7 C5          -5.8360     0.8660    -0.3150 ca         1 R00      -0.119500
      8 C6          -5.1280    -1.4070     0.1850 ca         1 R00      -0.119500
      9 C7          -7.0960     0.5970     0.2490 ca         1 R00      -0.138000
     10 C8          -6.3880    -1.6750     0.7490 ca         1 R00      -0.138000
     11 C9          -7.3720    -0.6730     0.7820 ca         1 R00      -0.147000
     12 C10          0.2500     0.0930     0.3890 c3         1 R00       0.142800
     13 N2           1.5540    -0.0050    -0.3080 n7         1 R00      -0.813200
     14 C11          2.6470     0.9110     0.1850 c3         1 R00       0.051500
     15 C            2.3690     2.4680     0.0370 c          1 R00       0.931600
     16 O            1.5020     2.8400    -0.7510 o          1 R00      -0.820800
     17 C13          3.9730     0.5360    -0.5240 c3         1 R00      -0.033100
     18 C14          4.4100    -0.9040    -0.2640 ca         1 R00      -0.059300
     19 C15          4.3060    -1.8780    -1.2770 ca         1 R00      -0.131500
     20 C16          4.9250    -1.2720     0.9950 ca         1 R00      -0.131500
     21 C17          4.7100    -3.2030    -1.0340 ca         1 R00      -0.137500
     22 C18          5.3300    -2.5960     1.2390 ca         1 R00      -0.137500
     23 C19          5.2220    -3.5620     0.2240 ca         1 R00      -0.152000
     24 OXT          2.9520     3.2450     0.7880 o          1 R00      -0.820800
     25 H1          -1.8220     1.4100     1.6930 hn         1 R00       0.346800
     26 H           -2.3650    -0.6470     0.6860 h1         1 R00       0.037700
     27 H3          -0.8730    -0.5570    -1.3270 h1         1 R00       0.018700
     28 H4           0.1830     1.8610    -1.1130 ho         1 R00       0.496000
     29 H5          -3.5130     1.0630    -1.5760 hc         1 R00       0.054700
     30 H6          -3.2400    -0.6600    -1.6780 hc         1 R00       0.054700
     31 H7          -5.6300     1.8530    -0.7240 ha         1 R00       0.129500
     32 H8          -4.3730    -2.1900     0.1600 ha         1 R00       0.129500
     33 H9          -7.8570     1.3750     0.2730 ha         1 R00       0.117500
     34 H10         -6.6010    -2.6600     1.1600 ha         1 R00       0.117500
     35 H11         -8.3470    -0.8810     1.2190 ha         1 R00       0.115000
     36 H12          0.2480     0.9310     1.0990 h1         1 R00       0.024700
     37 H13          0.0740    -0.8220     0.9690 h1         1 R00       0.024700
     38 H14          1.8870    -0.9720    -0.2430 hn         1 R00       0.338800
     39 H15          2.7910     0.7250     1.2580 h1         1 R00       0.009700
     40 H16          3.8660     0.7200    -1.6000 hc         1 R00       0.065200
     41 H17          4.7600     1.2180    -0.1810 hc         1 R00       0.065200
     42 H18          3.9080    -1.6090    -2.2540 ha         1 R00       0.136000
     43 H19          5.0110    -0.5290     1.7860 ha         1 R00       0.136000
     44 H20          4.6260    -3.9500    -1.8200 ha         1 R00       0.116500
     45 H21          5.7260    -2.8730     2.2140 ha         1 R00       0.116500
     46 H22          5.5350    -4.5870     0.4130 ha         1 R00       0.114000
     47 H2          -2.3190     2.2650     0.4200 hn         1 R00       0.346800
@<TRIPOS>BOND
     1     1     2 1   
     2     1    25 1   
     3     1    47 1   
     4     2     3 1   
     5     2     5 1   
     6     2    26 1   
     7     3     4 1   
     8     3    12 1   
     9     3    27 1   
    10     4    28 1   
    11     5     6 1   
    12     5    29 1   
    13     5    30 1   
    14     6     7 ar  
    15     6     8 ar  
    16     7     9 ar  
    17     7    31 1   
    18     8    10 ar  
    19     8    32 1   
    20     9    11 ar  
    21     9    33 1   
    22    10    11 ar  
    23    10    34 1   
    24    11    35 1   
    25    12    13 1   
    26    12    36 1   
    27    12    37 1   
    28    13    14 1   
    29    13    38 1   
    30    14    15 1   
    31    14    17 1   
    32    14    39 1   
    33    15    16 1   
    34    15    24 1   
    35    17    18 1   
    36    17    40 1   
    37    17    41 1   
    38    18    19 ar  
    39    18    20 ar  
    40    19    21 ar  
    41    19    42 1   
    42    20    22 ar  
    43    20    43 1   
    44    21    23 ar  
    45    21    44 1   
    46    22    23 ar  
    47    22    45 1   
    48    23    46 1   
@<TRIPOS>SUBSTRUCTURE
     1 R00         1 TEMP              0 ****  ****    0 ROOT
