@<TRIPOS>MOLECULE
R02
   54    57     1     0     0
SMALL
abcg2


@<TRIPOS>ATOM
      1 C1G         68.2260    71.7440    71.5900 ca         1 R02      -0.151600
      2 C1          66.8180    71.2430    71.5940 c          1 R02       0.596300
      3 O2          66.2970    70.9190    72.6580 o          1 R02      -0.525100
      4 C1A         66.0810    71.1450    70.3170 ca         1 R02      -0.215600
      5 C2A         66.7300    71.0040    69.0880 ca         1 R02      -0.023000
      6 C3A         66.0170    70.8620    67.9060 ca         1 R02      -0.190500
      7 C4A         64.6200    70.8730    67.9380 ca         1 R02       0.175100
      8 O1B         63.8340    70.7580    66.8480 os         1 R02      -0.347100
      9 C2B         64.4600    70.6160    65.5550 c3         1 R02       0.194600
     10 C3B         63.3890    70.4780    64.5230 cx         1 R02      -0.130700
     11 C5B         62.6860    71.7010    63.9980 cx         1 R02      -0.109400
     12 C2F         60.6110    71.3710    60.5540 cx         1 R02      -0.125400
     13 C1F         62.0320    71.8300    60.6710 cx         1 R02       0.106500
     14 N1D         63.0680    70.8330    60.6720 n3         1 R02      -0.705600
     15 C1E         64.3300    71.3670    60.1510 c3         1 R02       0.204000
     16 C2E         65.3430    70.2930    59.9000 c2         1 R02      -0.214200
     17 C3E         66.5830    70.3020    60.3750 c2         1 R02      -0.321000
     18 C5A         63.9550    71.0100    69.1670 ca         1 R02      -0.190500
     19 C6A         64.6770    71.1320    70.3340 ca         1 R02      -0.023000
     20 C6G         68.6350    72.7940    70.7660 ca         1 R02      -0.069500
     21 C5G         69.9380    73.2730    70.8210 ca         1 R02      -0.096000
     22 C4G         70.8350    72.6750    71.6960 ca         1 R02       0.006100
     23 BR25        72.6400    73.3060    71.7530 br         1 R02      -0.104100
     24 C3G         70.4540    71.6320    72.5300 ca         1 R02      -0.096000
     25 C4B         63.6670    70.9670    63.1280 cx         1 R02      -0.149700
     26 C3F         61.2830    72.0620    59.3920 cx         1 R02      -0.125400
     27 C2G         69.1440    71.1810    72.4810 ca         1 R02      -0.069500
     28 H6          67.8100    70.9790    69.0440 ha         1 R02       0.126500
     29 H5          66.5520    70.7440    66.9770 ha         1 R02       0.127000
     30 H151        65.1050    69.7330    65.5700 h1         1 R02       0.041700
     31 H152        65.0750    71.4980    65.3570 h1         1 R02       0.041700
     32 H16         62.7960    69.5730    64.6030 hc         1 R02       0.092700
     33 H171        62.9770    72.6630    64.4010 hc         1 R02       0.077200
     34 H172        61.6340    71.6080    63.7580 hc         1 R02       0.077200
     35 H192        60.4490    70.3050    60.4670 hc         1 R02       0.074950
     36 H20         62.2030    72.7100    61.2900 h1         1 R02       0.060700
     37 H251        64.7620    72.1380    60.8060 h1         1 R02       0.038700
     38 H252        64.0900    71.8580    59.2030 h1         1 R02       0.038700
     39 H26         65.0080    69.4690    59.2740 ha         1 R02       0.179000
     40 H291        67.2880    69.5130    60.1420 ha         1 R02       0.161500
     41 H292        66.9360    71.1060    61.0120 ha         1 R02       0.161500
     42 H3          62.8730    71.0180    69.1760 ha         1 R02       0.127000
     43 H2          64.1620    71.2340    71.2800 ha         1 R02       0.126500
     44 H13         67.9330    73.2600    70.0900 ha         1 R02       0.129500
     45 H12         70.2460    74.0950    70.1910 ha         1 R02       0.133500
     46 H10         71.1660    71.1780    73.2060 ha         1 R02       0.133500
     47 H4B         64.6290    71.4480    62.9940 hc         1 R02       0.077700
     48 H3F1        60.9860    73.0740    59.1500 hc         1 R02       0.074950
     49 H3F2        61.5620    71.4480    58.5460 hc         1 R02       0.074950
     50 H9          68.8290    70.3740    73.1290 ha         1 R02       0.129500
     51 C1C         63.2000    70.1330    61.9530 c3         1 R02       0.203800
     52 H191        59.8540    71.9070    61.1100 hc         1 R02       0.074950
     53 H271        62.2280    69.6950    62.1910 h1         1 R02       0.057700
     54 H272        63.8990    69.3050    61.8070 h1         1 R02       0.057700
@<TRIPOS>BOND
     1     1     2 1   
     2     1    20 ar  
     3     1    27 ar  
     4     2     3 2   
     5     2     4 1   
     6     4     5 ar  
     7     4    19 ar  
     8     5     6 ar  
     9     5    28 1   
    10     6     7 ar  
    11     6    29 1   
    12     7     8 1   
    13     7    18 ar  
    14     8     9 1   
    15     9    10 1   
    16     9    30 1   
    17     9    31 1   
    18    10    11 1   
    19    10    25 1   
    20    10    32 1   
    21    11    25 1   
    22    11    33 1   
    23    11    34 1   
    24    12    13 1   
    25    12    26 1   
    26    12    35 1   
    27    12    52 1   
    28    13    14 1   
    29    13    26 1   
    30    13    36 1   
    31    14    15 1   
    32    14    51 1   
    33    15    16 1   
    34    15    37 1   
    35    15    38 1   
    36    16    17 2   
    37    16    39 1   
    38    17    40 1   
    39    17    41 1   
    40    18    19 ar  
    41    18    42 1   
    42    19    43 1   
    43    20    21 ar  
    44    20    44 1   
    45    21    22 ar  
    46    21    45 1   
    47    22    23 1   
    48    22    24 ar  
    49    24    27 ar  
    50    24    46 1   
    51    25    47 1   
    52    25    51 1   
    53    26    48 1   
    54    26    49 1   
    55    27    50 1   
    56    51    53 1   
    57    51    54 1   
@<TRIPOS>SUBSTRUCTURE
     1 R02         1 TEMP              0 ****  ****    0 ROOT
