@<TRIPOS>MOLECULE
R02
   54    57     1     0     0
SMALL
No Charge or Current Charge


@<TRIPOS>ATOM
      1 C1G         68.2330    71.7270    71.7440 ca         1 R02      -0.151600
      2 C1          66.8750    71.0620    71.6970 c          1 R02       0.596300
      3 O2          66.3750    70.5980    72.7160 o          1 R02      -0.525100
      4 C1A         66.1400    70.9740    70.3810 ca         1 R02      -0.215600
      5 C2A         66.8400    70.8270    69.1630 ca         1 R02      -0.023000
      6 C3A         66.1410    70.7330    67.9470 ca         1 R02      -0.190500
      7 C4A         64.7310    70.7740    67.9350 ca         1 R02       0.175100
      8 O1B         63.9920    70.6860    66.7740 os         1 R02      -0.347100
      9 C2B         64.6100    70.5570    65.4830 c3         1 R02       0.194600
     10 C3B         63.4910    70.4970    64.4520 cx         1 R02      -0.130700
     11 C5B         62.8280    71.7580    63.9430 cx         1 R02      -0.109400
     12 C2F         60.5600    71.5910    60.6130 cx         1 R02      -0.125400
     13 C1F         62.0180    71.9710    60.6570 cx         1 R02       0.106500
     14 N1D         62.9940    70.9080    60.5800 n3         1 R02      -0.705600
     15 C1E         64.2680    71.3350    59.9550 c3         1 R02       0.204000
     16 C2E         65.1780    70.1630    59.6510 c2         1 R02      -0.214200
     17 C3E         66.3440    69.8940    60.2640 c2         1 R02      -0.321000
     18 C5A         64.0350    70.9020    69.1450 ca         1 R02      -0.190500
     19 C6A         64.7300    70.9960    70.3630 ca         1 R02      -0.023000
     20 C6G         68.5500    72.8070    70.8880 ca         1 R02      -0.069500
     21 C5G         69.8120    73.4220    70.9550 ca         1 R02      -0.096000
     22 C4G         70.7640    72.9730    71.8830 ca         1 R02       0.006100
     23 Br25        72.4800    73.8130    71.9730 br         1 R02      -0.104100
     24 C3G         70.4560    71.9140    72.7500 ca         1 R02      -0.096000
     25 C4B         63.7230    70.9520    63.0260 cx         1 R02      -0.149700
     26 C3F         61.2050    72.2630    59.4210 cx         1 R02      -0.125400
     27 C2G         69.1950    71.2960    72.6860 ca         1 R02      -0.069500
     28 H6          67.9270    70.7720    69.1520 ha         1 R02       0.126500
     29 H5          66.7100    70.6230    67.0290 ha         1 R02       0.127000
     30 H151        65.2080    69.6380    65.4260 h1         1 R02       0.041700
     31 H152        65.2630    71.4150    65.2770 h1         1 R02       0.041700
     32 H16         62.8490    69.6310    64.5940 hc         1 R02       0.092700
     33 H171        63.2020    72.7150    64.3010 hc         1 R02       0.077200
     34 H172        61.7550    71.7290    63.7680 hc         1 R02       0.077200
     35 H192        60.3070    70.5380    60.5240 hc         1 R02       0.074950
     36 H20         62.2960    72.8220    61.2820 h1         1 R02       0.060700
     37 H251        64.7910    72.0560    60.5980 h1         1 R02       0.038700
     38 H252        64.0590    71.8540    59.0090 h1         1 R02       0.038700
     39 H26         64.8030    69.5130    58.8580 ha         1 R02       0.179000
     40 H291        66.9460    69.0260    59.9900 ha         1 R02       0.161500
     41 H292        66.7330    70.5300    61.0600 ha         1 R02       0.161500
     42 H3          62.9490    70.9280    69.1400 ha         1 R02       0.127000
     43 H2          64.1700    71.0950    71.2910 ha         1 R02       0.126500
     44 H13         67.8170    73.1830    70.1760 ha         1 R02       0.129500
     45 H12         70.0480    74.2510    70.2910 ha         1 R02       0.133500
     46 H10         71.1920    71.5700    73.4730 ha         1 R02       0.133500
     47 H4B         64.7040    71.3670    62.8090 hc         1 R02       0.077700
     48 H3F1        60.9490    73.3000    59.2220 hc         1 R02       0.074950
     49 H3F2        61.3860    71.6590    58.5360 hc         1 R02       0.074950
     50 H9          68.9680    70.4760    73.3650 ha         1 R02       0.129500
     51 C1C         63.1540    70.1500    61.8530 c3         1 R02       0.203800
     52 H191        59.8710    72.1770    61.2160 hc         1 R02       0.074950
     53 H271        62.1800    69.7420    62.1550 h1         1 R02       0.057700
     54 H272        63.8030    69.2790    61.6930 h1         1 R02       0.057700
@<TRIPOS>BOND
     1     1     2 1   
     2     1    20 ar  
     3     1    27 ar  
     4     2     3 2   
     5     2     4 1   
     6     4     5 ar  
     7     4    19 ar  
     8     5     6 ar  
     9     5    28 1   
    10     6     7 ar  
    11     6    29 1   
    12     7     8 1   
    13     7    18 ar  
    14     8     9 1   
    15     9    10 1   
    16     9    30 1   
    17     9    31 1   
    18    10    11 1   
    19    10    25 1   
    20    10    32 1   
    21    11    25 1   
    22    11    33 1   
    23    11    34 1   
    24    12    13 1   
    25    12    26 1   
    26    12    35 1   
    27    12    52 1   
    28    13    14 1   
    29    13    26 1   
    30    13    36 1   
    31    14    15 1   
    32    14    51 1   
    33    15    16 1   
    34    15    37 1   
    35    15    38 1   
    36    16    17 2   
    37    16    39 1   
    38    17    40 1   
    39    17    41 1   
    40    18    19 ar  
    41    18    42 1   
    42    19    43 1   
    43    20    21 ar  
    44    20    44 1   
    45    21    22 ar  
    46    21    45 1   
    47    22    23 1   
    48    22    24 ar  
    49    24    27 ar  
    50    24    46 1   
    51    25    47 1   
    52    25    51 1   
    53    26    48 1   
    54    26    49 1   
    55    27    50 1   
    56    51    53 1   
    57    51    54 1   
@<TRIPOS>SUBSTRUCTURE
     1 R02         1 TEMP              0 ****  ****    0 ROOT
