@<TRIPOS>MOLECULE
R05
   43    46     1     0     0
SMALL
bcc


@<TRIPOS>ATOM
      1 C1          -8.4960     1.4270    29.9670 c3         1 R05      -0.132400
      2 C2          -7.9710     0.1000    30.4190 ca         1 R05       0.729300
      3 N1          -8.8320    -0.7650    30.9240 nb         1 R05      -0.763000
      4 C3          -8.2770    -1.9360    31.2450 ca         1 R05       0.481800
      5 C4          -6.9360    -2.2920    31.0840 ca         1 R05      -0.377400
      6 C5          -6.7990    -3.6490    31.5350 cc         1 R05      -0.069400
      7 C6          -8.0440    -4.0260    31.9620 cd         1 R05      -0.105100
      8 N2          -8.9250    -2.9970    31.7850 na         1 R05      -0.263100
      9 C7          -5.6280    -4.5250    31.4900 ca         1 R05       0.064200
     10 C8          -5.3170    -5.3550    32.5520 ca         1 R05      -0.314300
     11 C9          -4.2020    -6.2050    32.4600 ca         1 R05       0.664200
     12 N3          -3.9010    -7.0710    33.4670 nv         1 R05      -0.947500
     13 N4          -3.4110    -6.2270    31.3870 nb         1 R05      -0.746000
     14 C10         -3.7220    -5.4280    30.3720 ca         1 R05       0.448200
     15 C11         -4.8030    -4.5710    30.3550 ca         1 R05      -0.314300
     16 C12         -6.1050    -1.2450    30.6230 ca         1 R05       0.780200
     17 N5          -4.7700    -1.3780    30.5540 nu         1 R05      -0.873900
     18 C13         -3.8630    -0.3910    30.0170 c3         1 R05       0.284100
     19 C14         -2.9490    -1.0190    29.0000 ca         1 R05      -0.203300
     20 C15         -1.6010    -1.2480    29.2300 ca         1 R05       0.175900
     21 F1          -1.0850    -0.8680    30.4080 f          1 R05      -0.132400
     22 C16         -0.7640    -1.8530    28.3100 ca         1 R05      -0.192000
     23 C17         -1.3010    -2.2590    27.0990 ca         1 R05      -0.070000
     24 C18         -2.6460    -2.0650    26.8160 ca         1 R05      -0.192000
     25 C19         -3.4310    -1.4540    27.7710 ca         1 R05       0.175900
     26 F2          -4.7330    -1.2680    27.5170 f          1 R05      -0.132400
     27 N6          -6.6540    -0.0850    30.2760 nb         1 R05      -0.834000
     28 H1          -8.3230     1.5600    28.8980 hc         1 R05       0.056700
     29 H2          -9.5620     1.5150    30.1600 hc         1 R05       0.056700
     30 H3          -7.9780     2.2400    30.4770 hc         1 R05       0.056700
     31 H4          -8.3750    -4.9780    32.3460 h4         1 R05       0.171000
     32 H5          -9.9110    -3.0300    31.9940 hn         1 R05       0.313700
     33 H6          -5.9130    -5.3410    33.4570 ha         1 R05       0.139000
     34 H7          -2.9660    -7.4440    33.4740 hn         1 R05       0.416800
     35 H8          -4.2830    -6.8860    34.3800 hn         1 R05       0.416800
     36 H9          -3.0640    -5.4780    29.5100 h4         1 R05       0.015100
     37 H10         -5.0170    -3.9810    29.4740 ha         1 R05       0.151000
     38 H11         -4.3590    -2.2320    30.8940 hn         1 R05       0.451800
     39 H12         -3.2820     0.0690    30.8160 h1         1 R05       0.079700
     40 H13         -4.4530     0.4030    29.5630 h1         1 R05       0.079700
     41 H14          0.2810    -2.0050    28.5410 ha         1 R05       0.157500
     42 H15         -0.6650    -2.7360    26.3660 ha         1 R05       0.142000
     43 H16         -3.0750    -2.3820    25.8750 ha         1 R05       0.157500
@<TRIPOS>BOND
     1     1     2 1   
     2     1    28 1   
     3     1    29 1   
     4     1    30 1   
     5     2     3 ar  
     6     2    27 ar  
     7     3     4 ar  
     8     4     5 ar  
     9     4     8 1   
    10     5     6 1   
    11     5    16 ar  
    12     6     7 2   
    13     6     9 1   
    14     7     8 1   
    15     7    31 1   
    16     8    32 1   
    17     9    10 ar  
    18     9    15 ar  
    19    10    11 ar  
    20    10    33 1   
    21    11    12 1   
    22    11    13 ar  
    23    12    34 1   
    24    12    35 1   
    25    13    14 ar  
    26    14    15 ar  
    27    14    36 1   
    28    15    37 1   
    29    16    17 1   
    30    16    27 ar  
    31    17    18 1   
    32    17    38 1   
    33    18    19 1   
    34    18    39 1   
    35    18    40 1   
    36    19    20 ar  
    37    19    25 ar  
    38    20    21 1   
    39    20    22 ar  
    40    22    23 ar  
    41    22    41 1   
    42    23    24 ar  
    43    23    42 1   
    44    24    25 ar  
    45    24    43 1   
    46    25    26 1   
@<TRIPOS>SUBSTRUCTURE
     1 R05         1 TEMP              0 ****  ****    0 ROOT
