@<TRIPOS>MOLECULE
R05
   43    46     1     0     0
SMALL
No Charge or Current Charge


@<TRIPOS>ATOM
      1 C1          -8.6920     1.7230    30.7000 c3         1 R05      -0.132400
      2 C2          -8.1210     0.3270    30.8750 ca         1 R05       0.203300
      3 N1          -8.9050    -0.5790    31.5100 nb         1 R05      -0.237000
      4 C3          -8.3900    -1.8140    31.6530 ca         1 R05       0.153500
      5 C4          -7.1430    -2.1190    31.1680 ca         1 R05      -0.246800
      6 C5          -6.8790    -3.4950    31.4770 cc         1 R05      -0.069400
      7 C6          -7.9780    -3.9830    32.1600 cd         1 R05      -0.155100
      8 N2          -8.9290    -2.9350    32.2710 na         1 R05      -0.313400
      9 C7          -5.7580    -4.3580    31.1100 ca         1 R05       0.064200
     10 C8          -5.1160    -5.1590    32.0650 ca         1 R05      -0.231000
     11 C9          -4.0530    -5.9620    31.6510 ca         1 R05       0.598900
     12 N3          -3.3600    -6.7520    32.4730 nv         1 R05      -1.057900
     13 N4          -3.5890    -6.0390    30.4120 nb         1 R05      -0.746000
     14 C10         -4.2110    -5.2800    29.4830 ca         1 R05       0.382900
     15 C11         -5.2910    -4.4350    29.7870 ca         1 R05      -0.231000
     16 C12         -6.3780    -1.1260    30.5480 ca         1 R05       0.451900
     17 N5          -5.0940    -1.3790    30.1040 nu         1 R05      -0.929100
     18 C13         -4.2670    -0.5500    29.2270 c3         1 R05       0.284100
     19 C14         -2.9960    -1.3160    28.9020 ca         1 R05      -0.203300
     20 C15         -1.8300    -1.1380    29.6720 ca         1 R05       0.211000
     21 F1          -1.8220    -0.2740    30.7120 f          1 R05      -0.167500
     22 C16         -0.6600    -1.8560    29.3780 ca         1 R05      -0.174000
     23 C17         -0.6380    -2.7640    28.3070 ca         1 R05      -0.052000
     24 C18         -1.7950    -2.9470    27.5320 ca         1 R05      -0.174000
     25 C19         -2.9630    -2.2270    27.8270 ca         1 R05       0.211000
     26 F2          -4.0640    -2.4280    27.0680 f          1 R05      -0.167500
     27 N6          -6.8750     0.1140    30.3900 nb         1 R05      -0.308000
     28 H1          -8.3250     2.1930    29.7790 hc         1 R05       0.056700
     29 H2          -9.7870     1.7060    30.6460 hc         1 R05       0.056700
     30 H3          -8.4080     2.3660    31.5410 hc         1 R05       0.056700
     31 H4          -8.1630    -4.9840    32.5430 h4         1 R05       0.221000
     32 H5          -9.8420    -2.9880    32.7130 hn         1 R05       0.364000
     33 H6          -5.4310    -5.1500    33.1030 ha         1 R05       0.121000
     34 H7          -2.4820    -7.0880    32.0970 hn         1 R05       0.472000
     35 H8          -3.3750    -6.5300    33.4630 hn         1 R05       0.472000
     36 H9          -3.8340    -5.3530    28.4630 h4         1 R05       0.015100
     37 H10         -5.7670    -3.8640    28.9940 ha         1 R05       0.133000
     38 H11         -4.7780    -2.3300    30.2720 hn         1 R05       0.507000
     39 H12         -4.0260     0.4080    29.7100 h1         1 R05       0.079700
     40 H13         -4.8060    -0.3160    28.2970 h1         1 R05       0.079700
     41 H14          0.2310    -1.7080    29.9840 ha         1 R05       0.139500
     42 H15          0.2680    -3.3220    28.0790 ha         1 R05       0.124000
     43 H16         -1.7890    -3.6480    26.7010 ha         1 R05       0.139500
@<TRIPOS>BOND
     1     1     2 1   
     2     1    28 1   
     3     1    29 1   
     4     1    30 1   
     5     2     3 ar  
     6     2    27 ar  
     7     3     4 ar  
     8     4     5 ar  
     9     4     8 1   
    10     5     6 1   
    11     5    16 ar  
    12     6     7 2   
    13     6     9 1   
    14     7     8 1   
    15     7    31 1   
    16     8    32 1   
    17     9    10 ar  
    18     9    15 ar  
    19    10    11 ar  
    20    10    33 1   
    21    11    12 1   
    22    11    13 ar  
    23    12    34 1   
    24    12    35 1   
    25    13    14 ar  
    26    14    15 ar  
    27    14    36 1   
    28    15    37 1   
    29    16    17 1   
    30    16    27 ar  
    31    17    18 1   
    32    17    38 1   
    33    18    19 1   
    34    18    39 1   
    35    18    40 1   
    36    19    20 ar  
    37    19    25 ar  
    38    20    21 1   
    39    20    22 ar  
    40    22    23 ar  
    41    22    41 1   
    42    23    24 ar  
    43    23    42 1   
    44    24    25 ar  
    45    24    43 1   
    46    25    26 1   
@<TRIPOS>SUBSTRUCTURE
     1 R05         1 TEMP              0 ****  ****    0 ROOT
