@<TRIPOS>MOLECULE
R08
   52    56     1     0     0
SMALL
abcg2


@<TRIPOS>ATOM
      1 N1         -19.5300    10.1000    31.8670 nc         1 R08      -0.509800
      2 N3         -20.3040     4.8680    26.8680 ns         1 R08      -0.159000
      3 C4         -21.5120     8.1980    29.4790 c          1 R08       0.652700
      4 C5         -22.7670     6.3280    28.5800 c6         1 R08       0.103000
      5 C6         -22.0550     4.9660    28.5540 c6         1 R08      -0.117400
      6 C7         -20.5830     5.1410    28.1690 c          1 R08       0.607100
      7 C8         -18.9940     4.8710    26.3190 ca         1 R08      -0.078000
      8 C10        -16.5120     4.6700    25.1910 ca         1 R08       0.358900
      9 C13        -16.6540     8.3420    25.7520 ca         1 R08      -0.106000
     10 C15        -18.7330     7.3540    26.5170 ca         1 R08      -0.087000
     11 C17        -22.1670     4.2960    29.9010 ca         1 R08      -0.056300
     12 C20        -22.3540     3.0230    32.3840 ca         1 R08      -0.090000
     13 C21        -22.4930     4.3990    32.2830 ca         1 R08      -0.097000
     14 C22        -22.3970     5.0480    31.0520 ca         1 R08      -0.077300
     15 C19        -22.1210     2.2910    31.2260 ca         1 R08       0.128000
     16 C18        -22.0280     2.9100    29.9920 ca         1 R08      -0.092000
     17 C23        -22.5770     6.5490    31.0150 c6         1 R08       0.152300
     18 N2         -22.2880     7.1160    29.7040 n          1 R08      -0.391800
     19 O          -21.2030     8.5790    28.3470 o          1 R08      -0.608100
     20 C3         -21.0350     8.9700    30.6590 cc         1 R08      -0.203600
     21 C2         -21.7240     9.5990    31.6820 cd         1 R08      -0.207000
     22 C1         -20.7380    10.2940    32.3980 cd         1 R08       0.234900
     23 N          -19.7260     9.2990    30.8060 na         1 R08       0.159800
     24 C          -18.6000     8.8960    29.9810 c3         1 R08       0.066900
     25 O1         -19.7380     5.5170    28.9710 o          1 R08      -0.571100
     26 C16        -18.2560     6.0730    26.1600 ca         1 R08      -0.003000
     27 C14        -17.9450     8.4590    26.3130 ca         1 R08      -0.098000
     28 C12        -16.1700     7.1120    25.3910 ca         1 R08      -0.090000
     29 C11        -16.9610     5.9550    25.5800 ca         1 R08      -0.091000
     30 N4         -17.2220     3.5740    25.3300 nb         1 R08      -0.653000
     31 C9         -18.4490     3.6830    25.8970 ca         1 R08       0.302900
     32 H1         -21.0270     4.4340    26.3140 hn         1 R08       0.153000
     33 H2         -22.5960     6.8820    27.6630 h1         1 R08       0.074200
     34 H3         -23.8390     6.1600    28.6990 h1         1 R08       0.074200
     35 H4         -22.5490     4.3470    27.8030 hc         1 R08       0.067700
     36 H5         -15.5270     4.5730    24.7450 h4         1 R08       0.022100
     37 H6         -16.0520     9.2300    25.6070 ha         1 R08       0.117000
     38 H7         -19.7120     7.4650    26.9580 ha         1 R08       0.145000
     39 H8         -22.4250     2.5270    33.3420 ha         1 R08       0.135000
     40 H9         -22.6750     4.9790    33.1800 ha         1 R08       0.122000
     41 H10        -21.8520     2.3250    29.0990 ha         1 R08       0.128000
     42 H11        -21.9250     7.0070    31.7530 h1         1 R08       0.069200
     43 H12        -23.6070     6.7930    31.2960 h1         1 R08       0.069200
     44 H13        -22.7830     9.5580    31.8710 ha         1 R08       0.144000
     45 H14        -20.8520    10.9150    33.2730 h4         1 R08       0.040100
     46 H15        -17.7230     8.8240    30.6190 h1         1 R08       0.068700
     47 H16        -18.8070     7.9290    29.5300 h1         1 R08       0.068700
     48 H17        -18.4230     9.6280    29.1940 h1         1 R08       0.068700
     49 H18        -18.3170     9.4380    26.5890 ha         1 R08       0.122000
     50 H19        -15.1840     7.0070    24.9540 ha         1 R08       0.117000
     51 H20        -19.0150     2.7650    26.0120 h4         1 R08       0.018100
     52 CL         -21.9470     0.5500    31.3300 cl         1 R08      -0.204000
@<TRIPOS>BOND
     1     1    22 2   
     2     1    23 1   
     3     2     6 1   
     4     2     7 1   
     5     2    32 1   
     6     3    18 1   
     7     3    19 2   
     8     3    20 1   
     9     4     5 1   
    10     4    18 1   
    11     4    33 1   
    12     4    34 1   
    13     5     6 1   
    14     5    11 1   
    15     5    35 1   
    16     6    25 2   
    17     7    26 ar  
    18     7    31 ar  
    19     8    29 ar  
    20     8    30 ar  
    21     8    36 1   
    22     9    27 ar  
    23     9    28 ar  
    24     9    37 1   
    25    10    26 ar  
    26    10    27 ar  
    27    10    38 1   
    28    11    14 ar  
    29    11    16 ar  
    30    12    13 ar  
    31    12    15 ar  
    32    12    39 1   
    33    13    14 ar  
    34    13    40 1   
    35    14    17 1   
    36    15    16 ar  
    37    15    52 1   
    38    16    41 1   
    39    17    18 1   
    40    17    42 1   
    41    17    43 1   
    42    20    21 2   
    43    20    23 1   
    44    21    22 1   
    45    21    44 1   
    46    22    45 1   
    47    23    24 1   
    48    24    46 1   
    49    24    47 1   
    50    24    48 1   
    51    26    29 ar  
    52    27    49 1   
    53    28    29 ar  
    54    28    50 1   
    55    30    31 ar  
    56    31    51 1   
@<TRIPOS>SUBSTRUCTURE
     1 R08         1 TEMP              0 ****  ****    0 ROOT
