@<TRIPOS>MOLECULE
R08
   52    56     1     0     0
SMALL
No Charge or Current Charge


@<TRIPOS>ATOM
      1 N1         -20.2800    11.0290    31.8670 nc         1 R08      -0.509800
      2 N3         -20.3340     4.9120    26.7930 ns         1 R08      -0.159000
      3 C4         -21.3970     8.2470    29.5630 c          1 R08       0.652700
      4 C5         -22.6530     6.2360    28.6840 c6         1 R08       0.103000
      5 C6         -21.9610     4.8590    28.6550 c6         1 R08      -0.117400
      6 C7         -20.4970     4.9530    28.1710 c          1 R08       0.607100
      7 C8         -19.1490     4.8700    26.0040 ca         1 R08      -0.078000
      8 C10        -16.9410     4.5320    24.3740 ca         1 R08       0.358900
      9 C13        -15.8640     7.5520    26.2680 ca         1 R08      -0.106000
     10 C15        -18.0880     6.8910    27.0100 ca         1 R08      -0.087000
     11 C17        -22.0810     4.1480    30.0010 ca         1 R08      -0.056300
     12 C20        -22.3120     2.8370    32.4800 ca         1 R08      -0.090000
     13 C21        -22.3750     4.2400    32.4170 ca         1 R08      -0.097000
     14 C22        -22.2600     4.9040    31.1800 ca         1 R08      -0.077300
     15 C19        -22.1330     2.0910    31.3050 ca         1 R08       0.128000
     16 C18        -22.0190     2.7430    30.0670 ca         1 R08      -0.092000
     17 C23        -22.3200     6.4420    31.1490 c6         1 R08       0.152300
     18 N2         -22.1530     7.0710    29.8070 n          1 R08      -0.391800
     19 O          -20.9650     8.4640    28.4390 o          1 R08      -0.608100
     20 C3         -21.1410     9.2130    30.6770 cc         1 R08      -0.203600
     21 C2         -21.7870     9.3410    31.8870 cd         1 R08      -0.207000
     22 C1         -21.2250    10.4370    32.5650 cd         1 R08       0.234900
     23 N          -20.2440    10.2880    30.7010 na         1 R08       0.159800
     24 C          -19.2890    10.6590    29.6440 c3         1 R08       0.066900
     25 O1         -19.5500     4.9580    28.9510 o          1 R08      -0.571100
     26 C16        -18.0730     5.7880    26.1260 ca         1 R08      -0.003000
     27 C14        -16.9880     7.7630    27.0830 ca         1 R08      -0.098000
     28 C12        -15.8440     6.4730    25.3700 ca         1 R08      -0.090000
     29 C11        -16.9460     5.5990    25.2930 ca         1 R08      -0.091000
     30 N4         -17.9750     3.6730    24.2330 nb         1 R08      -0.653000
     31 C9         -19.0500     3.8520    25.0320 ca         1 R08       0.302900
     32 H1         -21.1940     4.8310    26.2650 hn         1 R08       0.153000
     33 H2         -22.5260     6.7450    27.7180 h1         1 R08       0.074200
     34 H3         -23.7340     6.0900    28.8190 h1         1 R08       0.074200
     35 H4         -22.5100     4.3100    27.8770 hc         1 R08       0.067700
     36 H5         -16.0860     4.3650    23.7180 h4         1 R08       0.022100
     37 H6         -15.0150     8.2290    26.3260 ha         1 R08       0.117000
     38 H7         -18.9480     7.0920    27.6380 ha         1 R08       0.145000
     39 H8         -22.4010     2.3290    33.4370 ha         1 R08       0.135000
     40 H9         -22.5110     4.8120    33.3330 ha         1 R08       0.122000
     41 H10        -21.8820     2.1560    29.1630 ha         1 R08       0.128000
     42 H11        -21.5260     6.7970    31.8190 h1         1 R08       0.069200
     43 H12        -23.2860     6.7560    31.5690 h1         1 R08       0.069200
     44 H13        -22.6160     8.7580    32.2680 ha         1 R08       0.144000
     45 H14        -21.4940    10.8280    33.5380 h4         1 R08       0.040100
     46 H15        -18.6340    11.4660    29.9930 h1         1 R08       0.068700
     47 H16        -18.6780     9.7870    29.3820 h1         1 R08       0.068700
     48 H17        -19.8390    10.9970    28.7580 h1         1 R08       0.068700
     49 H18        -17.0090     8.6070    27.7690 ha         1 R08       0.122000
     50 H19        -14.9760     6.3220    24.7320 ha         1 R08       0.117000
     51 H20        -19.8620     3.1370    24.9000 h4         1 R08       0.018100
     52 Cl         -22.0540     0.3350    31.3830 cl         1 R08      -0.204000
@<TRIPOS>BOND
     1     1    22 2   
     2     1    23 1   
     3     2     6 1   
     4     2     7 1   
     5     2    32 1   
     6     3    18 1   
     7     3    19 2   
     8     3    20 1   
     9     4     5 1   
    10     4    18 1   
    11     4    33 1   
    12     4    34 1   
    13     5     6 1   
    14     5    11 1   
    15     5    35 1   
    16     6    25 2   
    17     7    26 ar  
    18     7    31 ar  
    19     8    29 ar  
    20     8    30 ar  
    21     8    36 1   
    22     9    27 ar  
    23     9    28 ar  
    24     9    37 1   
    25    10    26 ar  
    26    10    27 ar  
    27    10    38 1   
    28    11    14 ar  
    29    11    16 ar  
    30    12    13 ar  
    31    12    15 ar  
    32    12    39 1   
    33    13    14 ar  
    34    13    40 1   
    35    14    17 1   
    36    15    16 ar  
    37    15    52 1   
    38    16    41 1   
    39    17    18 1   
    40    17    42 1   
    41    17    43 1   
    42    20    21 2   
    43    20    23 1   
    44    21    22 1   
    45    21    44 1   
    46    22    45 1   
    47    23    24 1   
    48    24    46 1   
    49    24    47 1   
    50    24    48 1   
    51    26    29 ar  
    52    27    49 1   
    53    28    29 ar  
    54    28    50 1   
    55    30    31 ar  
    56    31    51 1   
@<TRIPOS>SUBSTRUCTURE
     1 R08         1 TEMP              0 ****  ****    0 ROOT
