@<TRIPOS>MOLECULE
R09
   60    64     1     0     0
SMALL
No Charge or Current Charge


@<TRIPOS>ATOM
      1 CAB          3.1330     1.6780     1.9740 c3         1 R09      -0.050800
      2 CAW          3.7060     0.7050     0.9450 ca         1 R09      -0.049300
      3 CAQ          5.0860     0.4170     0.9880 ca         1 R09      -0.025000
      4 CBA          5.6620    -0.4930     0.0790 ca         1 R09      -0.254500
      5 SBI          7.4290    -0.8600     0.1560 sy         1 R09       1.056500
      6 OAE          7.8670    -1.3690    -1.1510 o          1 R09      -0.519500
      7 OAF          8.1200     0.2610     0.8080 o          1 R09      -0.519500
      8 CAD          7.5070    -2.2400     1.2950 c3         1 R09      -0.337100
      9 CAL          4.8490    -1.1210    -0.8820 ca         1 R09      -0.028000
     10 CAN          3.4750    -0.8370    -0.9310 ca         1 R09      -0.116000
     11 CBB          2.8820     0.0640    -0.0190 ca         1 R09      -0.071500
     12 CBD          1.4440     0.3580    -0.1390 cc         1 R09       0.444000
     13 NBH          0.4560    -0.6060    -0.2510 na         1 R09      -0.144500
     14 CAC          0.6190    -2.0670    -0.1350 c3         1 R09       0.052900
     15 NAU          0.9260     1.5780    -0.1960 nd         1 R09      -0.646000
     16 CBC         -0.4390     1.4210    -0.3410 cd         1 R09       0.295500
     17 CAY         -1.3220     2.6030    -0.5340 ca         1 R09      -0.065500
     18 CAI         -0.8540     3.9000    -0.2230 ca         1 R09      -0.148000
     19 CAG         -1.6760     5.0180    -0.4370 ca         1 R09       0.326900
     20 NAT         -2.9200     4.9300    -0.9600 nb         1 R09      -0.665000
     21 CAH         -3.3670     3.6990    -1.2930 ca         1 R09       0.326900
     22 CAJ         -2.6110     2.5290    -1.1100 ca         1 R09      -0.148000
     23 CBE         -0.7350     0.0720    -0.3760 cc         1 R09      -0.116000
     24 CAZ         -2.0740    -0.5080    -0.4290 ca         1 R09      -0.047000
     25 CAS         -3.0340    -0.1670     0.5430 ca         1 R09      -0.051000
     26 CBG         -4.3230    -0.7320     0.4990 ca         1 R09      -0.078000
     27 CAO         -5.2860    -0.3810     1.4630 ca         1 R09      -0.055000
     28 CAK         -6.5720    -0.9460     1.4150 ca         1 R09      -0.179000
     29 CAX         -6.9020    -1.8690     0.3990 ca         1 R09       0.152100
     30 OAV         -8.1480    -2.4550     0.3020 os         1 R09      -0.341100
     31 CAA         -9.2060    -2.1670     1.2350 c3         1 R09       0.148900
     32 CAR         -5.9390    -2.2180    -0.5620 ca         1 R09      -0.156000
     33 CBF         -4.6510    -1.6540    -0.5170 ca         1 R09       0.009000
     34 CAP         -3.6880    -2.0060    -1.4800 ca         1 R09      -0.108000
     35 CAM         -2.4030    -1.4380    -1.4330 ca         1 R09      -0.091000
     36 HAB1         2.9270     2.6540     1.5200 hc         1 R09       0.054033
     37 HAB2         2.2000     1.3000     2.4070 hc         1 R09       0.054033
     38 HAB3         3.8270     1.8440     2.8060 hc         1 R09       0.054033
     39 HAQ          5.7100     0.9030     1.7360 ha         1 R09       0.139000
     40 HAL          5.2740    -1.8240    -1.5970 ha         1 R09       0.139000
     41 HAD1         6.9150    -3.0620     0.8780 h1         1 R09       0.102367
     42 HAD2         8.5560    -2.5340     1.4040 h1         1 R09       0.102367
     43 HAD3         7.0940    -1.9150     2.2550 h1         1 R09       0.102367
     44 HAN          2.8700    -1.3130    -1.6990 ha         1 R09       0.122000
     45 HAC1        -0.2730    -2.5050     0.3310 h1         1 R09       0.059700
     46 HAC2         0.7540    -2.5030    -1.1320 h1         1 R09       0.059700
     47 HAC3         1.4910    -2.3010     0.4880 h1         1 R09       0.059700
     48 HAI          0.1350     4.0520     0.1990 ha         1 R09       0.132000
     49 HAJ         -3.0340     1.5930    -1.4530 ha         1 R09       0.132000
     50 HAG         -1.3270     6.0190    -0.1850 h4         1 R09       0.016600
     51 HAH         -4.3620     3.6500    -1.7350 h4         1 R09       0.016600
     52 HAS         -2.7770     0.5390     1.3290 ha         1 R09       0.124000
     53 HAM         -1.6650    -1.7130    -2.1830 ha         1 R09       0.116000
     54 HAO         -5.0390     0.3290     2.2500 ha         1 R09       0.118000
     55 HAK         -7.2950    -0.6570     2.1720 ha         1 R09       0.120000
     56 HAR         -6.1980    -2.9290    -1.3420 ha         1 R09       0.131000
     57 HAA1        -8.9120    -2.4420     2.2560 h1         1 R09       0.042700
     58 HAA2        -9.4630    -1.1000     1.2160 h1         1 R09       0.042700
     59 HAA3       -10.1070    -2.7370     0.9760 h1         1 R09       0.042700
     60 HAP         -3.9320    -2.7190    -2.2640 ha         1 R09       0.119000
@<TRIPOS>BOND
     1     1     2 1   
     2     1    36 1   
     3     1    37 1   
     4     1    38 1   
     5     2     3 ar  
     6     2    11 ar  
     7     3     4 ar  
     8     3    39 1   
     9     4     5 1   
    10     4     9 ar  
    11     5     6 2   
    12     5     7 2   
    13     5     8 1   
    14     8    41 1   
    15     8    42 1   
    16     8    43 1   
    17     9    10 ar  
    18     9    40 1   
    19    10    11 ar  
    20    10    44 1   
    21    11    12 1   
    22    12    13 1   
    23    12    15 2   
    24    13    14 1   
    25    13    23 1   
    26    14    45 1   
    27    14    46 1   
    28    14    47 1   
    29    15    16 1   
    30    16    17 1   
    31    16    23 2   
    32    17    18 ar  
    33    17    22 ar  
    34    18    19 ar  
    35    18    48 1   
    36    19    20 ar  
    37    19    50 1   
    38    20    21 ar  
    39    21    22 ar  
    40    21    51 1   
    41    22    49 1   
    42    23    24 1   
    43    24    25 ar  
    44    24    35 ar  
    45    25    26 ar  
    46    25    52 1   
    47    26    27 ar  
    48    26    33 ar  
    49    27    28 ar  
    50    27    54 1   
    51    28    29 ar  
    52    28    55 1   
    53    29    30 1   
    54    29    32 ar  
    55    30    31 1   
    56    31    57 1   
    57    31    58 1   
    58    31    59 1   
    59    32    33 ar  
    60    32    56 1   
    61    33    34 ar  
    62    34    35 ar  
    63    34    60 1   
    64    35    53 1   
@<TRIPOS>SUBSTRUCTURE
     1 R09         1 TEMP              0 ****  ****    0 ROOT
