@<TRIPOS>MOLECULE
R09
   60    64     1     0     0
SMALL
abcg2


@<TRIPOS>ATOM
      1 CAB          3.1180     1.7140     1.9080 c3         1 R09      -0.050800
      2 CAW          3.6520     0.7190     0.9210 ca         1 R09      -0.049300
      3 CAQ          5.0000     0.3750     0.9590 ca         1 R09      -0.025000
      4 CBA          5.5200    -0.5460     0.0630 ca         1 R09      -0.254500
      5 SBI          7.2430    -0.9660     0.1500 sy         1 R09       1.056500
      6 OAE          7.6760    -1.3950    -1.1780 o          1 R09      -0.519500
      7 OAF          7.9510     0.1360     0.7990 o          1 R09      -0.519500
      8 CAD          7.2790    -2.3740     1.2350 c3         1 R09      -0.337100
      9 CAL          4.7240    -1.1510    -0.8970 ca         1 R09      -0.028000
     10 CAN          3.3830    -0.8160    -0.9390 ca         1 R09      -0.116000
     11 CBB          2.8410     0.1080    -0.0460 ca         1 R09      -0.071500
     12 CBD          1.4170     0.4510    -0.1560 cc         1 R09       0.444000
     13 NBH          0.4190    -0.4710    -0.1940 na         1 R09      -0.144500
     14 CAC          0.5360    -1.8950     0.0520 c3         1 R09       0.052900
     15 NAU          0.9470     1.6650    -0.2800 nd         1 R09      -0.646000
     16 CBC         -0.4020     1.5410    -0.4170 cd         1 R09       0.295500
     17 CAY         -1.2410     2.7210    -0.6060 ca         1 R09      -0.065500
     18 CAI         -0.8070     3.9670    -0.1540 ca         1 R09      -0.148000
     19 CAG         -1.6110     5.0770    -0.3510 ca         1 R09       0.326900
     20 NAT         -2.7920     5.0370    -0.9590 nb         1 R09      -0.665000
     21 CAH         -3.2010     3.8520    -1.4000 ca         1 R09       0.326900
     22 CAJ         -2.4760     2.6810    -1.2550 ca         1 R09      -0.148000
     23 CBE         -0.7570     0.2090    -0.3580 cc         1 R09      -0.116000
     24 CAZ         -2.0600    -0.4580    -0.3870 ca         1 R09      -0.047000
     25 CAS         -3.0290    -0.1270     0.5260 ca         1 R09      -0.051000
     26 CBG         -4.2990    -0.7420     0.4950 ca         1 R09      -0.078000
     27 CAO         -5.3130    -0.4110     1.4200 ca         1 R09      -0.055000
     28 CAK         -6.5380    -1.0200     1.3820 ca         1 R09      -0.179000
     29 CAX         -6.8110    -2.0050     0.4030 ca         1 R09       0.152100
     30 OAV         -7.9900    -2.6450     0.3090 os         1 R09      -0.341100
     31 CAA         -9.0150    -2.3410     1.2360 c3         1 R09       0.148900
     32 CAR         -5.8410    -2.3460    -0.5140 ca         1 R09      -0.156000
     33 CBF         -4.5780    -1.7280    -0.4860 ca         1 R09       0.009000
     34 CAP         -3.5610    -2.0560    -1.4180 ca         1 R09      -0.108000
     35 CAM         -2.3440    -1.4410    -1.3710 ca         1 R09      -0.091000
     36 HAB1         2.9060     2.6700     1.4310 hc         1 R09       0.054033
     37 HAB2         2.1880     1.3720     2.3610 hc         1 R09       0.054033
     38 HAB3         3.8390     1.8870     2.7040 hc         1 R09       0.054033
     39 HAQ          5.6390     0.8320     1.7030 ha         1 R09       0.139000
     40 HAL          5.1310    -1.8590    -1.6050 ha         1 R09       0.139000
     41 HAD1         6.6900    -3.1790     0.8030 h1         1 R09       0.102367
     42 HAD2         8.3190    -2.6830     1.3320 h1         1 R09       0.102367
     43 HAD3         6.8800    -2.0920     2.2070 h1         1 R09       0.102367
     44 HAN          2.7550    -1.2650    -1.6980 ha         1 R09       0.122000
     45 HAC1        -0.3000    -2.2280     0.6630 h1         1 R09       0.059700
     46 HAC2         0.5410    -2.4630    -0.8760 h1         1 R09       0.059700
     47 HAC3         1.4570    -2.0960     0.5910 h1         1 R09       0.059700
     48 HAI          0.1440     4.0710     0.3500 ha         1 R09       0.132000
     49 HAJ         -2.8710     1.7600    -1.6580 ha         1 R09       0.132000
     50 HAG         -1.2820     6.0480     0.0030 h4         1 R09       0.016600
     51 HAH         -4.1600     3.8270    -1.9050 h4         1 R09       0.016600
     52 HAS         -2.8280     0.6190     1.2870 ha         1 R09       0.124000
     53 HAM         -1.5900    -1.6900    -2.1070 ha         1 R09       0.116000
     54 HAO         -5.1160     0.3410     2.1740 ha         1 R09       0.118000
     55 HAK         -7.2860    -0.7360     2.1080 ha         1 R09       0.120000
     56 HAR         -6.0500    -3.0990    -1.2650 ha         1 R09       0.131000
     57 HAA1        -8.7110    -2.5490     2.2650 h1         1 R09       0.042700
     58 HAA2        -9.3380    -1.2990     1.1660 h1         1 R09       0.042700
     59 HAA3        -9.8550    -2.9830     0.9840 h1         1 R09       0.042700
     60 HAP         -3.7610    -2.8000    -2.1790 ha         1 R09       0.119000
@<TRIPOS>BOND
     1     1     2 1   
     2     1    36 1   
     3     1    37 1   
     4     1    38 1   
     5     2     3 ar  
     6     2    11 ar  
     7     3     4 ar  
     8     3    39 1   
     9     4     5 1   
    10     4     9 ar  
    11     5     6 2   
    12     5     7 2   
    13     5     8 1   
    14     8    41 1   
    15     8    42 1   
    16     8    43 1   
    17     9    10 ar  
    18     9    40 1   
    19    10    11 ar  
    20    10    44 1   
    21    11    12 1   
    22    12    13 1   
    23    12    15 2   
    24    13    14 1   
    25    13    23 1   
    26    14    45 1   
    27    14    46 1   
    28    14    47 1   
    29    15    16 1   
    30    16    17 1   
    31    16    23 2   
    32    17    18 ar  
    33    17    22 ar  
    34    18    19 ar  
    35    18    48 1   
    36    19    20 ar  
    37    19    50 1   
    38    20    21 ar  
    39    21    22 ar  
    40    21    51 1   
    41    22    49 1   
    42    23    24 1   
    43    24    25 ar  
    44    24    35 ar  
    45    25    26 ar  
    46    25    52 1   
    47    26    27 ar  
    48    26    33 ar  
    49    27    28 ar  
    50    27    54 1   
    51    28    29 ar  
    52    28    55 1   
    53    29    30 1   
    54    29    32 ar  
    55    30    31 1   
    56    31    57 1   
    57    31    58 1   
    58    31    59 1   
    59    32    33 ar  
    60    32    56 1   
    61    33    34 ar  
    62    34    35 ar  
    63    34    60 1   
    64    35    53 1   
@<TRIPOS>SUBSTRUCTURE
     1 R09         1 TEMP              0 ****  ****    0 ROOT
