@<TRIPOS>MOLECULE
R0A
   45    49     1     0     0
SMALL
abcg2


@<TRIPOS>ATOM
      1 C18        -44.3040   -26.1050    -0.5110 cy         1 R0A      -0.096400
      2 N1         -45.3700   -28.5290     2.6270 nh         1 R0A      -0.764300
      3 C16        -44.3520   -28.0430     0.4580 cy         1 R0A       0.160000
      4 C17        -43.2730   -27.2410    -0.2920 cy         1 R0A      -0.098900
      5 C15        -44.2220   -27.9020     1.9640 c6         1 R0A       0.213800
      6 C14        -44.2780   -28.1940     5.9610 ca         1 R0A       0.187900
      7 C13        -46.3150   -29.0590     6.1330 ca         1 R0A       0.207500
      8 C12        -48.8360   -29.2850     3.4610 ca         1 R0A      -0.040000
      9 C11        -50.1660   -29.6350     3.6550 ca         1 R0A      -0.177000
     10 C10        -50.5980   -29.9990     4.9250 ca         1 R0A       0.172000
     11 C9         -49.7790   -30.0160     6.0350 ca         1 R0A      -0.178000
     12 C8         -48.4540   -29.6530     5.8210 ca         1 R0A       0.007800
     13 C7         -47.9440   -29.3080     4.5370 cp         1 R0A      -0.035000
     14 C6         -46.5460   -28.9650     4.7410 cp         1 R0A      -0.215000
     15 C5         -45.4290   -28.5350     3.9830 ca         1 R0A       0.456900
     16 C4         -46.0870   -29.5130     1.8190 c6         1 R0A       0.189800
     17 C3         -45.1110   -30.2980     0.9500 c6         1 R0A       0.166300
     18 C19        -45.4310   -27.1100    -0.1680 cy         1 R0A      -0.098900
     19 C2         -44.1480   -31.1580     1.7670 c3         1 R0A      -0.226400
     20 C1         -44.8700   -32.2230     2.6160 c          1 R0A       0.703000
     21 O1         -44.3800   -29.4140     0.0760 os         1 R0A      -0.472000
     22 N2         -47.4450   -29.5170     6.7510 na         1 R0A      -0.333300
     23 N3         -45.1980   -28.7070     6.7750 nb         1 R0A      -0.256000
     24 N4         -44.3310   -28.0900     4.6370 nb         1 R0A      -0.295000
     25 H16        -44.2130   -25.3140     0.2330 hc         1 R0A       0.041200
     26 H15        -44.3320   -25.6550    -1.5020 hc         1 R0A       0.041200
     27 H14        -42.3570   -27.0140     0.2560 hc         1 R0A       0.055950
     28 H13        -43.0220   -27.7440    -1.2260 hc         1 R0A       0.055950
     29 H12        -44.1750   -26.8490     2.2400 h1         1 R0A       0.059200
     30 H11        -43.2850   -28.3640     2.2820 h1         1 R0A       0.059200
     31 H10        -43.3700   -27.8280     6.4310 h5         1 R0A       0.033100
     32 H8         -48.5190   -28.9790     2.4770 ha         1 R0A       0.122000
     33 H7         -50.8710   -29.6210     2.8350 ha         1 R0A       0.123000
     34 H6         -50.1580   -30.2790     7.0130 ha         1 R0A       0.126000
     35 H4         -46.8270   -29.0270     1.1810 h1         1 R0A       0.067700
     36 H5         -46.6040   -30.2090     2.4700 h1         1 R0A       0.067700
     37 H1         -45.7000   -30.9520     0.3060 h1         1 R0A       0.086700
     38 H17        -45.8530   -27.5700    -1.0600 hc         1 R0A       0.055950
     39 H18        -46.2360   -26.7710     0.4840 hc         1 R0A       0.055950
     40 H3         -43.5320   -30.5340     2.4130 hc         1 R0A       0.037700
     41 H2         -43.4830   -31.6690     1.0650 hc         1 R0A       0.037700
     42 H9         -47.5470   -29.6220     7.7490 hn         1 R0A       0.358000
     43 O2         -45.7040   -32.9530     2.0190 o          1 R0A      -0.733000
     44 O3         -44.5720   -32.2860     3.8360 o          1 R0A      -0.733000
     45 F1         -51.9060   -30.3370     5.0860 f          1 R0A      -0.199000
@<TRIPOS>BOND
     1     1     4 1   
     2     1    18 1   
     3     1    25 1   
     4     1    26 1   
     5     2     5 1   
     6     2    15 1   
     7     2    16 1   
     8     3     4 1   
     9     3     5 1   
    10     3    18 1   
    11     3    21 1   
    12     4    27 1   
    13     4    28 1   
    14     5    29 1   
    15     5    30 1   
    16     6    23 ar  
    17     6    24 ar  
    18     6    31 1   
    19     7    14 ar  
    20     7    22 1   
    21     7    23 ar  
    22     8     9 ar  
    23     8    13 ar  
    24     8    32 1   
    25     9    10 ar  
    26     9    33 1   
    27    10    11 ar  
    28    10    45 1   
    29    11    12 ar  
    30    11    34 1   
    31    12    13 ar  
    32    12    22 1   
    33    13    14 1   
    34    14    15 ar  
    35    15    24 ar  
    36    16    17 1   
    37    16    35 1   
    38    16    36 1   
    39    17    19 1   
    40    17    21 1   
    41    17    37 1   
    42    18    38 1   
    43    18    39 1   
    44    19    20 1   
    45    19    40 1   
    46    19    41 1   
    47    20    43 1   
    48    20    44 1   
    49    22    42 1   
@<TRIPOS>SUBSTRUCTURE
     1 R0A         1 TEMP              0 ****  ****    0 ROOT
