@<TRIPOS>MOLECULE
R0A
   45    49     1     0     0
SMALL
No Charge or Current Charge


@<TRIPOS>ATOM
      1 C18        -44.9470   -26.1760    -0.4460 cy         1 R0A      -0.096400
      2 N1         -45.4100   -28.6770     2.7530 nh         1 R0A      -0.764300
      3 C16        -44.4260   -28.0680     0.4700 cy         1 R0A       0.160000
      4 C17        -43.6190   -27.0020    -0.3500 cy         1 R0A      -0.098900
      5 C15        -44.4430   -27.7990     2.0190 c6         1 R0A       0.213800
      6 C14        -44.1010   -28.8740     6.0830 ca         1 R0A       0.187900
      7 C13        -46.3380   -29.1600     6.3400 ca         1 R0A       0.207500
      8 C12        -48.7120   -28.8100     3.5040 ca         1 R0A      -0.040000
      9 C11        -50.1190   -28.9170     3.5750 ca         1 R0A      -0.177000
     10 C10        -50.7570   -29.2210     4.8010 ca         1 R0A       0.172000
     11 C9         -50.0070   -29.4100     5.9790 ca         1 R0A      -0.178000
     12 C8         -48.6190   -29.3050     5.8710 ca         1 R0A       0.007800
     13 C7         -47.9610   -29.0360     4.6770 cp         1 R0A      -0.035000
     14 C6         -46.5270   -28.9760     4.9670 cp         1 R0A      -0.215000
     15 C5         -45.3850   -28.7660     4.1610 ca         1 R0A       0.456900
     16 C4         -45.8550   -29.8760     1.9660 c6         1 R0A       0.189800
     17 C3         -44.7590   -30.4470     0.9850 c6         1 R0A       0.166300
     18 C19        -45.6960   -27.5430    -0.2960 cy         1 R0A      -0.098900
     19 C2         -43.6490   -31.2710     1.6990 c3         1 R0A      -0.226400
     20 C1         -44.2240   -32.5630     2.2840 c          1 R0A       0.703000
     21 O1         -44.0510   -29.4330     0.2030 os         1 R0A      -0.472000
     22 N2         -47.6230   -29.3810     6.8510 na         1 R0A      -0.333300
     23 N3         -45.1330   -29.1120     6.9240 nb         1 R0A      -0.256000
     24 N4         -44.1650   -28.7040     4.7420 nb         1 R0A      -0.295000
     25 H16        -45.1100   -25.4710     0.3770 hc         1 R0A       0.041200
     26 H15        -45.1090   -25.6460    -1.3900 hc         1 R0A       0.041200
     27 H14        -42.7900   -26.5180     0.1760 hc         1 R0A       0.055950
     28 H13        -43.2500   -27.3670    -1.3150 hc         1 R0A       0.055950
     29 H12        -44.6850   -26.7440     2.2080 h1         1 R0A       0.059200
     30 H11        -43.4170   -27.9640     2.3800 h1         1 R0A       0.059200
     31 H10        -43.1110   -28.8240     6.5330 h5         1 R0A       0.033100
     32 H8         -48.2290   -28.5370     2.5720 ha         1 R0A       0.122000
     33 H7         -50.7190   -28.7520     2.6840 ha         1 R0A       0.123000
     34 H6         -50.4920   -29.6170     6.9280 ha         1 R0A       0.126000
     35 H4         -46.7360   -29.6160     1.3630 h1         1 R0A       0.067700
     36 H5         -46.1930   -30.6740     2.6420 h1         1 R0A       0.067700
     37 H1         -45.2640   -31.1220     0.2770 h1         1 R0A       0.086700
     38 H17        -45.8880   -28.0550    -1.2460 hc         1 R0A       0.055950
     39 H18        -46.6310   -27.5080     0.2740 hc         1 R0A       0.055950
     40 H3         -43.2330   -30.6440     2.4950 hc         1 R0A       0.037700
     41 H2         -42.9190   -31.5270     0.9210 hc         1 R0A       0.037700
     42 H9         -47.8050   -29.5660     7.8300 hn         1 R0A       0.358000
     43 O2         -44.3290   -33.5270     1.5420 o          1 R0A      -0.733000
     44 O3         -44.5950   -32.5610     3.4460 o          1 R0A      -0.733000
     45 F1         -52.1040   -29.3090     4.8480 f          1 R0A      -0.199000
@<TRIPOS>BOND
     1     1     4 1   
     2     1    18 1   
     3     1    25 1   
     4     1    26 1   
     5     2     5 1   
     6     2    15 1   
     7     2    16 1   
     8     3     4 1   
     9     3     5 1   
    10     3    18 1   
    11     3    21 1   
    12     4    27 1   
    13     4    28 1   
    14     5    29 1   
    15     5    30 1   
    16     6    23 ar  
    17     6    24 ar  
    18     6    31 1   
    19     7    14 ar  
    20     7    22 1   
    21     7    23 ar  
    22     8     9 ar  
    23     8    13 ar  
    24     8    32 1   
    25     9    10 ar  
    26     9    33 1   
    27    10    11 ar  
    28    10    45 1   
    29    11    12 ar  
    30    11    34 1   
    31    12    13 ar  
    32    12    22 1   
    33    13    14 1   
    34    14    15 ar  
    35    15    24 ar  
    36    16    17 1   
    37    16    35 1   
    38    16    36 1   
    39    17    19 1   
    40    17    21 1   
    41    17    37 1   
    42    18    38 1   
    43    18    39 1   
    44    19    20 1   
    45    19    40 1   
    46    19    41 1   
    47    20    43 1   
    48    20    44 1   
    49    22    42 1   
@<TRIPOS>SUBSTRUCTURE
     1 R0A         1 TEMP              0 ****  ****    0 ROOT
