@<TRIPOS>MOLECULE
R0B
   36    36     1     0     0
SMALL
abcg2


@<TRIPOS>ATOM
      1 C10         19.5170     4.2810    18.6050 c3         1 R0B      -0.083100
      2 C17         12.4780     9.5570    23.5930 c3         1 R0B      -0.107100
      3 C13         15.6940     9.8440    21.4130 c5         1 R0B       0.406500
      4 C15         13.9560     9.5570    23.2240 c3         1 R0B       0.180300
      5 C18         13.4860    11.0230    21.2340 c          1 R0B       0.729000
      6 C04         17.1630     9.7380    19.5470 ce         1 R0B       0.036800
      7 C05         17.6800     8.7070    20.2340 c2         1 R0B      -0.109600
      8 C07         18.8940     7.8720    20.0030 c3         1 R0B       0.029800
      9 C08         18.5780     6.5040    19.3940 c3         1 R0B      -0.075400
     10 C09         19.8220     5.6450    19.2070 c3         1 R0B      -0.076400
     11 C14         14.2060     9.7390    21.7280 c3         1 R0B      -0.188700
     12 N12         15.9260    10.1900    20.0220 nu         1 R0B      -0.748200
     13 O01         17.1510    11.5180    18.0340 o          1 R0B      -0.724500
     14 O03         18.6850     9.9240    17.7350 o          1 R0B      -0.724500
     15 O16         14.5590     8.3320    23.6070 oh         1 R0B      -0.657000
     16 S06         16.6080     8.2580    21.5850 ss         1 R0B      -0.500600
     17 H1          20.4220     3.6860    18.4820 hc         1 R0B       0.015700
     18 H102        18.8330     3.7150    19.2400 hc         1 R0B       0.015700
     19 H101        19.0490     4.3780    17.6240 hc         1 R0B       0.015700
     20 H171        12.3550     9.3450    24.6570 hc         1 R0B       0.025033
     21 H172        12.0140    10.5250    23.4040 hc         1 R0B       0.025033
     22 H173        11.9280     8.8010    23.0300 hc         1 R0B       0.025033
     23 H131        16.1580    10.5740    22.0920 h2         1 R0B       0.036700
     24 H151        14.4400    10.3940    23.7470 h1         1 R0B       0.026700
     25 H071        19.4140     7.7230    20.9550 hc         1 R0B       0.036700
     26 H3          19.5760     8.4080    19.3460 hc         1 R0B       0.036700
     27 H082        18.0840     6.6520    18.4280 hc         1 R0B       0.044200
     28 H081        17.8600     5.9710    20.0260 hc         1 R0B       0.044200
     29 H091        20.3190     5.5170    20.1740 hc         1 R0B       0.025200
     30 H092        20.5350     6.1770    18.5700 hc         1 R0B       0.025200
     31 H141        13.7970     8.8740    21.1940 hc         1 R0B       0.069700
     32 H4          15.7770    11.1710    19.8280 hn         1 R0B       0.496000
     33 H161        14.5570     8.2840    24.5690 ho         1 R0B       0.398000
     34 O19         12.4360    10.8700    20.5870 o          1 R0B      -0.736000
     35 C02         17.7240    10.4480    18.3280 c          1 R0B       0.723200
     36 O11         14.0260    12.1050    21.5480 o          1 R0B      -0.736000
@<TRIPOS>BOND
     1     1    10 1   
     2     1    17 1   
     3     1    18 1   
     4     1    19 1   
     5     2     4 1   
     6     2    20 1   
     7     2    21 1   
     8     2    22 1   
     9     3    11 1   
    10     3    12 1   
    11     3    16 1   
    12     3    23 1   
    13     4    11 1   
    14     4    15 1   
    15     4    24 1   
    16     5    11 1   
    17     5    34 1   
    18     5    36 1   
    19     6     7 2   
    20     6    12 1   
    21     6    35 1   
    22     7     8 1   
    23     7    16 1   
    24     8     9 1   
    25     8    25 1   
    26     8    26 1   
    27     9    10 1   
    28     9    27 1   
    29     9    28 1   
    30    10    29 1   
    31    10    30 1   
    32    11    31 1   
    33    12    32 1   
    34    13    35 1   
    35    14    35 1   
    36    15    33 1   
@<TRIPOS>SUBSTRUCTURE
     1 R0B         1 TEMP              0 ****  ****    0 ROOT
