@<TRIPOS>MOLECULE
R0B
   36    36     1     0     0
SMALL
No Charge or Current Charge


@<TRIPOS>ATOM
      1 C10         19.7420     4.4410    18.1590 c3         1 R0B      -0.083100
      2 C17         12.3990     9.8880    23.7590 c3         1 R0B      -0.107100
      3 C13         15.6720     9.8010    21.4610 c5         1 R0B       0.406500
      4 C15         13.8950     9.7400    23.3880 c3         1 R0B       0.180300
      5 C18         13.4290    10.8820    21.1980 c          1 R0B       0.729000
      6 C04         17.0980     9.5030    19.5830 ce         1 R0B       0.036800
      7 C05         17.6090     8.5380    20.3790 c2         1 R0B      -0.109600
      8 C07         18.8750     7.7090    20.2130 c3         1 R0B       0.029800
      9 C08         18.6750     6.5040    19.2670 c3         1 R0B      -0.075400
     10 C09         19.9470     5.6440    19.0990 c3         1 R0B      -0.076400
     11 C14         14.1730     9.7150    21.8540 c3         1 R0B      -0.188700
     12 N12         15.8670    10.0810    20.0170 nu         1 R0B      -0.748200
     13 O01         17.1450    10.9960    17.7270 o          1 R0B      -0.724500
     14 O03         18.7880     9.6320    17.8660 o          1 R0B      -0.724500
     15 O16         14.3510     8.5350    24.0060 oh         1 R0B      -0.657000
     16 S06         16.6090     8.2210    21.8050 ss         1 R0B      -0.500600
     17 H1          20.6700     3.8630    18.0710 hc         1 R0B       0.015700
     18 H102        18.9590     3.7770    18.5430 hc         1 R0B       0.015700
     19 H101        19.4520     4.7770    17.1560 hc         1 R0B       0.015700
     20 H171        12.2600     9.8180    24.8450 hc         1 R0B       0.025033
     21 H172        12.0030    10.8610    23.4450 hc         1 R0B       0.025033
     22 H173        11.7980     9.1020    23.2860 hc         1 R0B       0.025033
     23 H131        16.1430    10.6020    22.0450 h2         1 R0B       0.036700
     24 H151        14.4310    10.5970    23.8200 h1         1 R0B       0.026700
     25 H071        19.1950     7.3310    21.1920 hc         1 R0B       0.036700
     26 H3          19.7050     8.3290    19.8570 hc         1 R0B       0.036700
     27 H082        18.3510     6.8660    18.2840 hc         1 R0B       0.044200
     28 H081        17.8640     5.8770    19.6580 hc         1 R0B       0.044200
     29 H091        20.2700     5.2770    20.0810 hc         1 R0B       0.025200
     30 H092        20.7590     6.2680    18.7070 hc         1 R0B       0.025200
     31 H141        13.7520     8.7890    21.4480 hc         1 R0B       0.069700
     32 H4          15.6300    10.9900    19.6150 hn         1 R0B       0.496000
     33 H161        14.1780     8.6250    24.9670 ho         1 R0B       0.398000
     34 O19         12.5240    10.6280    20.4150 o          1 R0B      -0.736000
     35 C02         17.7300    10.0770    18.2910 c          1 R0B       0.723200
     36 O11         13.7640    12.0230    21.4830 o          1 R0B      -0.736000
@<TRIPOS>BOND
     1     1    10 1   
     2     1    17 1   
     3     1    18 1   
     4     1    19 1   
     5     2     4 1   
     6     2    20 1   
     7     2    21 1   
     8     2    22 1   
     9     3    11 1   
    10     3    12 1   
    11     3    16 1   
    12     3    23 1   
    13     4    11 1   
    14     4    15 1   
    15     4    24 1   
    16     5    11 1   
    17     5    34 1   
    18     5    36 1   
    19     6     7 2   
    20     6    12 1   
    21     6    35 1   
    22     7     8 1   
    23     7    16 1   
    24     8     9 1   
    25     8    25 1   
    26     8    26 1   
    27     9    10 1   
    28     9    27 1   
    29     9    28 1   
    30    10    29 1   
    31    10    30 1   
    32    11    31 1   
    33    12    32 1   
    34    13    35 1   
    35    14    35 1   
    36    15    33 1   
@<TRIPOS>SUBSTRUCTURE
     1 R0B         1 TEMP              0 ****  ****    0 ROOT
