@<TRIPOS>MOLECULE
R0C
   50    53     1     0     0
SMALL
No Charge or Current Charge


@<TRIPOS>ATOM
      1 C1           0.3350     9.7740    -3.2200 c3         1 R0C       0.156600
      2 C2           0.8050     8.3200    -3.4040 ca         1 R0C      -0.143300
      3 C3           1.3290     7.9130    -4.6480 ca         1 R0C      -0.088500
      4 N6         -10.8740     5.4740     1.2740 nb         1 R0C      -0.418000
      5 C7           0.7230     7.3790    -2.3520 ca         1 R0C      -0.088500
      6 C8          -0.9370     9.9150    -2.3180 c          1 R0C       0.575100
      7 C9          -3.2470     9.0000    -2.1600 cc         1 R0C       0.515300
      8 C10         -5.3130     8.9630    -1.0180 cc         1 R0C       0.634300
      9 C11         -7.7050     8.4260    -0.4330 c5         1 R0C       0.209500
     10 C12         -8.6950     9.1170     0.5340 c5         1 R0C      -0.103400
     11 C13         -9.8110     8.0420     0.6120 c5         1 R0C       0.240800
     12 C14         -7.6100     7.0000     0.2010 c5         1 R0C       0.200800
     13 C15         -9.5410     5.5260     1.0210 ca         1 R0C       0.572900
     14 C16         -8.7410     4.3700     1.1350 ca         1 R0C      -0.181000
     15 O1          -0.9950    10.6570    -1.3470 o          1 R0C      -0.558100
     16 C6           1.1550     6.0550    -2.5480 ca         1 R0C      -0.110000
     17 C5           1.6710     5.6590    -3.7930 ca         1 R0C      -0.092000
     18 C4           1.7590     6.5890    -4.8410 ca         1 R0C      -0.110000
     19 O            1.4550    10.6100    -2.8010 os         1 R0C      -0.430000
     20 C            2.1590    10.2210    -1.6020 c3         1 R0C       0.140900
     21 N           -1.9980     9.1290    -2.7170 ns         1 R0C      -0.471400
     22 S           -3.8490     9.8380    -0.7570 ss         1 R0C      -0.246800
     23 N2          -5.3170     8.1390    -2.0500 nd         1 R0C      -0.394000
     24 N1          -4.1060     8.1620    -2.7190 nd         1 R0C      -0.362000
     25 N3          -6.4000     9.1080    -0.1980 nu         1 R0C      -0.896100
     26 N4          -9.0150     6.7820     0.6460 nh         1 R0C      -0.802300
     27 N5         -11.4730     4.3180     1.6390 nb         1 R0C      -0.278000
     28 C18        -10.7470     3.1790     1.7610 ca         1 R0C       0.213900
     29 C17         -9.3620     3.1630     1.5150 ca         1 R0C      -0.080000
     30 H1          -0.0030    10.1270    -4.2030 h1         1 R0C       0.093700
     31 H2           1.4060     8.6240    -5.4680 ha         1 R0C       0.118500
     32 H3           0.3330     7.6670    -1.3780 ha         1 R0C       0.118500
     33 H4          -8.0560     8.4110    -1.4770 h1         1 R0C       0.098700
     34 H5          -8.2630     9.2900     1.5280 hc         1 R0C       0.060700
     35 H6          -9.0630    10.0760     0.1560 hc         1 R0C       0.060700
     36 H7         -10.4320     8.1790     1.5080 h1         1 R0C       0.065200
     37 H8         -10.4640     8.0750    -0.2720 h1         1 R0C       0.065200
     38 H9          -7.2780     6.2610    -0.5410 h1         1 R0C       0.055200
     39 H10         -6.9210     6.9750     1.0570 h1         1 R0C       0.055200
     40 H11         -7.6750     4.4020     0.9410 ha         1 R0C       0.127000
     41 H12          1.0890     5.3370    -1.7340 ha         1 R0C       0.120000
     42 H13          2.0050     4.6350    -3.9430 ha         1 R0C       0.119000
     43 H14          2.1620     6.2850    -5.8050 ha         1 R0C       0.120000
     44 H15          2.9090    10.9780    -1.3430 h1         1 R0C       0.042367
     45 H16          1.4770    10.1190    -0.7490 h1         1 R0C       0.042367
     46 H17          2.6850     9.2690    -1.7430 h1         1 R0C       0.042367
     47 H18         -1.8180     8.5510    -3.5270 hn         1 R0C       0.349500
     48 H19         -6.2840     9.8050     0.5340 hn         1 R0C       0.487000
     49 H20        -11.2830     2.2790     2.0580 h4         1 R0C       0.027100
     50 H21         -8.7930     2.2430     1.6190 ha         1 R0C       0.125000
@<TRIPOS>BOND
     1     1     2 1   
     2     1     6 1   
     3     1    19 1   
     4     1    30 1   
     5     2     3 ar  
     6     2     5 ar  
     7     3    18 ar  
     8     3    31 1   
     9     4    13 ar  
    10     4    27 ar  
    11     5    16 ar  
    12     5    32 1   
    13     6    15 2   
    14     6    21 1   
    15     7    21 1   
    16     7    22 1   
    17     7    24 2   
    18     8    22 1   
    19     8    23 2   
    20     8    25 1   
    21     9    10 1   
    22     9    12 1   
    23     9    25 1   
    24     9    33 1   
    25    10    11 1   
    26    10    34 1   
    27    10    35 1   
    28    11    26 1   
    29    11    36 1   
    30    11    37 1   
    31    12    26 1   
    32    12    38 1   
    33    12    39 1   
    34    13    14 ar  
    35    13    26 1   
    36    14    29 ar  
    37    14    40 1   
    38    16    17 ar  
    39    16    41 1   
    40    17    18 ar  
    41    17    42 1   
    42    18    43 1   
    43    19    20 1   
    44    20    44 1   
    45    20    45 1   
    46    20    46 1   
    47    21    47 1   
    48    23    24 1   
    49    25    48 1   
    50    27    28 ar  
    51    28    29 ar  
    52    28    49 1   
    53    29    50 1   
@<TRIPOS>SUBSTRUCTURE
     1 R0C         1 TEMP              0 ****  ****    0 ROOT
