@<TRIPOS>MOLECULE
R0C
   50    53     1     0     0
SMALL
abcg2


@<TRIPOS>ATOM
      1 C1           0.2380     9.6480    -3.1950 c3         1 R0C       0.156600
      2 C2           0.6790     8.2040    -3.3400 ca         1 R0C      -0.143300
      3 C3           1.3100     7.8050    -4.5180 ca         1 R0C      -0.088500
      4 N6         -10.6290     5.4720     1.2800 nb         1 R0C      -0.418000
      5 C7           0.5090     7.2760    -2.3120 ca         1 R0C      -0.088500
      6 C8          -1.0620     9.7900    -2.3860 c          1 R0C       0.575100
      7 C9          -3.3750     9.0240    -2.3470 cc         1 R0C       0.515300
      8 C10         -5.4020     9.1080    -1.0980 cc         1 R0C       0.634300
      9 C11         -7.6500     8.5850    -0.3000 c5         1 R0C       0.209500
     10 C12         -8.7560     9.1860     0.5660 c5         1 R0C      -0.103400
     11 C13         -9.7380     8.0310     0.7430 c5         1 R0C       0.240800
     12 C14         -7.5280     7.1440     0.2300 c5         1 R0C       0.200800
     13 C15         -9.3210     5.6010     0.9730 ca         1 R0C       0.572900
     14 C16         -8.4520     4.4790     0.9640 ca         1 R0C      -0.181000
     15 O1          -1.1690    10.4830    -1.3870 o          1 R0C      -0.558100
     16 C6           0.9660     5.9720    -2.4580 ca         1 R0C      -0.110000
     17 C5           1.5960     5.5810    -3.6360 ca         1 R0C      -0.092000
     18 C4           1.7670     6.5000    -4.6670 ca         1 R0C      -0.110000
     19 O            1.2420    10.5150    -2.7020 os         1 R0C      -0.430000
     20 C            1.9260    10.0950    -1.5210 c3         1 R0C       0.140900
     21 N           -2.1130     9.0900    -2.9020 ns         1 R0C      -0.471400
     22 S           -3.8240     9.8560    -0.8790 ss         1 R0C      -0.246800
     23 N2          -5.4910     8.3510    -2.1580 nd         1 R0C      -0.394000
     24 N1          -4.3160     8.3140    -2.8790 nd         1 R0C      -0.362000
     25 N3          -6.4240     9.3570    -0.2410 nu         1 R0C      -0.896100
     26 N4          -8.8800     6.8440     0.6840 nh         1 R0C      -0.802300
     27 N5         -11.1290     4.2760     1.5820 nb         1 R0C      -0.278000
     28 C18        -10.3580     3.2020     1.5790 ca         1 R0C       0.213900
     29 C17         -8.9920     3.2630     1.2710 ca         1 R0C      -0.080000
     30 H1           0.0100    10.0340    -4.1930 h1         1 R0C       0.093700
     31 H2           1.4390     8.5200    -5.3210 ha         1 R0C       0.118500
     32 H3           0.0190     7.5680    -1.3910 ha         1 R0C       0.118500
     33 H4          -7.9730     8.5510    -1.3410 h1         1 R0C       0.098700
     34 H5          -8.3380     9.4770     1.5330 hc         1 R0C       0.060700
     35 H6          -9.2160    10.0620     0.1110 hc         1 R0C       0.060700
     36 H7         -10.2730     8.0740     1.6900 h1         1 R0C       0.065200
     37 H8         -10.4810     8.0060    -0.0600 h1         1 R0C       0.065200
     38 H9          -7.2040     6.4510    -0.5460 h1         1 R0C       0.055200
     39 H10         -6.8060     7.1050     1.0540 h1         1 R0C       0.055200
     40 H11         -7.4030     4.5890     0.7320 ha         1 R0C       0.127000
     41 H12          0.8290     5.2610    -1.6530 ha         1 R0C       0.120000
     42 H13          1.9480     4.5640    -3.7510 ha         1 R0C       0.119000
     43 H14          2.2520     6.2010    -5.5870 ha         1 R0C       0.120000
     44 H15          2.5500    10.9350    -1.2230 h1         1 R0C       0.042367
     45 H16          1.2300     9.8600    -0.7140 h1         1 R0C       0.042367
     46 H17          2.5580     9.2270    -1.7180 h1         1 R0C       0.042367
     47 H18         -1.9730     8.5210    -3.7270 hn         1 R0C       0.349500
     48 H19         -6.1760     9.7240     0.6660 hn         1 R0C       0.487000
     49 H20        -10.8420     2.2680     1.8330 h4         1 R0C       0.027100
     50 H21         -8.3850     2.3660     1.2850 ha         1 R0C       0.125000
@<TRIPOS>BOND
     1     1     2 1   
     2     1     6 1   
     3     1    19 1   
     4     1    30 1   
     5     2     3 ar  
     6     2     5 ar  
     7     3    18 ar  
     8     3    31 1   
     9     4    13 ar  
    10     4    27 ar  
    11     5    16 ar  
    12     5    32 1   
    13     6    15 2   
    14     6    21 1   
    15     7    21 1   
    16     7    22 1   
    17     7    24 2   
    18     8    22 1   
    19     8    23 2   
    20     8    25 1   
    21     9    10 1   
    22     9    12 1   
    23     9    25 1   
    24     9    33 1   
    25    10    11 1   
    26    10    34 1   
    27    10    35 1   
    28    11    26 1   
    29    11    36 1   
    30    11    37 1   
    31    12    26 1   
    32    12    38 1   
    33    12    39 1   
    34    13    14 ar  
    35    13    26 1   
    36    14    29 ar  
    37    14    40 1   
    38    16    17 ar  
    39    16    41 1   
    40    17    18 ar  
    41    17    42 1   
    42    18    43 1   
    43    19    20 1   
    44    20    44 1   
    45    20    45 1   
    46    20    46 1   
    47    21    47 1   
    48    23    24 1   
    49    25    48 1   
    50    27    28 ar  
    51    28    29 ar  
    52    28    49 1   
    53    29    50 1   
@<TRIPOS>SUBSTRUCTURE
     1 R0C         1 TEMP              0 ****  ****    0 ROOT
