@<TRIPOS>MOLECULE
R0D
   46    50     1     0     0
SMALL
abcg2


@<TRIPOS>ATOM
      1 C10         -0.1440     1.2030     0.7790 c6         1 R0D       0.096000
      2 C13         -2.7310     0.2100    -0.1330 c6         1 R0D       0.050300
      3 C17         -6.4270    -0.4550     1.4940 ca         1 R0D      -0.103000
      4 C20         -5.6400    -1.8070    -0.7980 ca         1 R0D      -0.103000
      5 C21         -4.8180    -0.8250    -0.2620 ca         1 R0D       0.061100
      6 C24          0.4280     1.8750    -1.4800 c6         1 R0D       0.096000
      7 C26          3.5440     0.2140     0.1110 ca         1 R0D      -0.113300
      8 C02          5.1360    -1.5300    -0.0070 ca         1 R0D       0.119000
      9 C03          6.1290    -0.6890     0.4790 ca         1 R0D      -0.102000
     10 C04          5.8290     0.6330     0.7890 ca         1 R0D      -0.057000
     11 C05          4.5300     1.0680     0.6000 ca         1 R0D       0.088400
     12 C07          2.7820     2.3280     0.5400 c2         1 R0D       0.406200
     13 C08          2.2710     1.0010     0.0240 c5         1 R0D      -0.105000
     14 C09          1.1600     0.4290     0.9210 c6         1 R0D      -0.071900
     15 C12         -1.7030     0.7580    -1.1250 c          1 R0D       0.612100
     16 C14         -3.4710     1.3520     0.5520 c6         1 R0D       0.123600
     17 C16         -5.2190    -0.1390     0.8870 ca         1 R0D       0.046100
     18 C18         -7.2400    -1.4430     0.9590 ca         1 R0D      -0.112000
     19 C19         -6.8500    -2.1120    -0.1950 ca         1 R0D      -0.107000
     20 C25          1.7490     1.1220    -1.4190 c6         1 R0D      -0.071900
     21 C27          3.8270    -1.0990    -0.2010 ca         1 R0D      -0.073000
     22 N06          4.0210     2.3560     0.8510 ne         1 R0D      -0.521100
     23 N11         -0.5620     1.2580    -0.6120 n          1 R0D      -0.418800
     24 O15         -4.4480     0.8350     1.4310 os         1 R0D      -0.328100
     25 O22         -3.6400    -0.5630    -0.8810 os         1 R0D      -0.302100
     26 O23         -1.9680     0.7710    -2.3140 o          1 R0D      -0.559100
     27 CL01         5.5400    -3.1740    -0.3880 cl         1 R0D      -0.198000
     28 H1          -0.8980     0.7330     1.4040 h1         1 R0D       0.058700
     29 H2          -0.0310     2.2250     1.1520 h1         1 R0D       0.058700
     30 H3          -2.2580    -0.4300     0.6210 h1         1 R0D       0.070700
     31 H5          -5.3210    -2.3280    -1.6930 ha         1 R0D       0.132000
     32 H6           0.5630     2.9150    -1.1650 h1         1 R0D       0.058700
     33 H7           0.0560     1.8940    -2.5000 h1         1 R0D       0.058700
     34 H8           7.1350    -1.0620     0.6150 ha         1 R0D       0.134000
     35 H9           6.5960     1.2960     1.1670 ha         1 R0D       0.137000
     36 H10          2.1640     3.2130     0.6460 h4         1 R0D       0.039800
     37 H11          1.4720     0.4380     1.9670 hc         1 R0D       0.063450
     38 H12          0.9880    -0.6140     0.6410 hc         1 R0D       0.063450
     39 H13         -2.7980     1.9630     1.1500 h1         1 R0D       0.072700
     40 H14         -3.9340     1.9960    -0.2050 h1         1 R0D       0.072700
     41 H15         -8.1800    -1.6810     1.4380 ha         1 R0D       0.118000
     42 H16         -7.4820    -2.8780    -0.6230 ha         1 R0D       0.119000
     43 H17          1.6110     0.1180    -1.8270 hc         1 R0D       0.063450
     44 H18          2.4850     1.6280    -2.0470 hc         1 R0D       0.063450
     45 H19          3.0690    -1.7730    -0.5810 ha         1 R0D       0.135000
     46 H4          -6.7230     0.0820     2.3870 ha         1 R0D       0.127000
@<TRIPOS>BOND
     1     1    14 1   
     2     1    23 1   
     3     1    28 1   
     4     1    29 1   
     5     2    15 1   
     6     2    16 1   
     7     2    25 1   
     8     2    30 1   
     9     3    17 ar  
    10     3    18 ar  
    11     3    46 1   
    12     4     5 ar  
    13     4    19 ar  
    14     4    31 1   
    15     5    17 ar  
    16     5    25 1   
    17     6    20 1   
    18     6    23 1   
    19     6    32 1   
    20     6    33 1   
    21     7    11 ar  
    22     7    13 1   
    23     7    21 ar  
    24     8     9 ar  
    25     8    21 ar  
    26     8    27 1   
    27     9    10 ar  
    28     9    34 1   
    29    10    11 ar  
    30    10    35 1   
    31    11    22 1   
    32    12    13 1   
    33    12    22 2   
    34    12    36 1   
    35    13    14 1   
    36    13    20 1   
    37    14    37 1   
    38    14    38 1   
    39    15    23 1   
    40    15    26 2   
    41    16    24 1   
    42    16    39 1   
    43    16    40 1   
    44    17    24 1   
    45    18    19 ar  
    46    18    41 1   
    47    19    42 1   
    48    20    43 1   
    49    20    44 1   
    50    21    45 1   
@<TRIPOS>SUBSTRUCTURE
     1 R0D         1 TEMP              0 ****  ****    0 ROOT
