@<TRIPOS>MOLECULE
R0D
   46    50     1     0     0
SMALL
No Charge or Current Charge


@<TRIPOS>ATOM
      1 C10         -0.1070     1.1420     0.8320 c6         1 R0D       0.096000
      2 C13         -2.8040     0.0370    -0.2190 c6         1 R0D       0.050300
      3 C17         -6.5900    -0.3930     1.5290 ca         1 R0D      -0.103000
      4 C20         -5.9800    -1.7630    -0.8580 ca         1 R0D      -0.103000
      5 C21         -5.0560    -0.8540    -0.3160 ca         1 R0D       0.061100
      6 C24          0.4430     1.8900    -1.4720 c6         1 R0D       0.096000
      7 C26          3.6640     0.3370     0.1200 ca         1 R0D      -0.113300
      8 C02          5.2910    -1.4430    -0.0670 ca         1 R0D       0.119000
      9 C03          6.2880    -0.5810     0.4440 ca         1 R0D      -0.102000
     10 C04          5.9670     0.7480     0.7940 ca         1 R0D      -0.057000
     11 C05          4.6450     1.1750     0.6200 ca         1 R0D       0.088400
     12 C07          2.8310     2.4310     0.5950 c2         1 R0D       0.406200
     13 C08          2.3390     1.0730     0.0440 c5         1 R0D      -0.105000
     14 C09          1.2540     0.4090     0.9370 c6         1 R0D      -0.071900
     15 C12         -1.5880     0.4190    -1.1140 c          1 R0D       0.612100
     16 C14         -3.4150     1.2320     0.5580 c6         1 R0D       0.123600
     17 C16         -5.3700    -0.1530     0.8750 ca         1 R0D       0.046100
     18 C18         -7.5070    -1.3120     0.9890 ca         1 R0D      -0.112000
     19 C19         -7.2050    -1.9930    -0.2050 ca         1 R0D      -0.107000
     20 C25          1.8070     1.1610    -1.4140 c6         1 R0D      -0.071900
     21 C27          3.9670    -0.9890    -0.2340 ca         1 R0D      -0.073000
     22 N06          4.1020     2.4280     0.8930 ne         1 R0D      -0.521100
     23 N11         -0.5630     1.2450    -0.5840 n          1 R0D      -0.418800
     24 O15         -4.4890     0.7680     1.4060 os         1 R0D      -0.328100
     25 O22         -3.8490    -0.6560    -0.9530 os         1 R0D      -0.302100
     26 O23         -1.5180     0.0260    -2.2740 o          1 R0D      -0.559100
     27 Cl01         5.7060    -3.0960    -0.4990 cl         1 R0D      -0.198000
     28 H1          -0.8350     0.6020     1.4510 h1         1 R0D       0.058700
     29 H2          -0.0150     2.1540     1.2520 h1         1 R0D       0.058700
     30 H3          -2.4060    -0.6680     0.5230 h1         1 R0D       0.070700
     31 H5          -5.7420    -2.2950    -1.7760 ha         1 R0D       0.132000
     32 H6           0.5720     2.9360    -1.1590 h1         1 R0D       0.058700
     33 H7           0.0840     1.9150    -2.5110 h1         1 R0D       0.058700
     34 H8           7.3050    -0.9440     0.5670 ha         1 R0D       0.134000
     35 H9           6.7230     1.4230     1.1890 ha         1 R0D       0.137000
     36 H10          2.2170     3.3170     0.7340 h4         1 R0D       0.039800
     37 H11          1.5850     0.3890     1.9850 hc         1 R0D       0.063450
     38 H12          1.1180    -0.6390     0.6370 hc         1 R0D       0.063450
     39 H13         -2.6750     1.7500     1.1800 h1         1 R0D       0.072700
     40 H14         -3.8200     1.9610    -0.1580 h1         1 R0D       0.072700
     41 H15         -8.4540    -1.4950     1.4930 ha         1 R0D       0.118000
     42 H16         -7.9180    -2.7010    -0.6230 ha         1 R0D       0.119000
     43 H17          1.6910     0.1510    -1.8310 hc         1 R0D       0.063450
     44 H18          2.5340     1.6800    -2.0530 hc         1 R0D       0.063450
     45 H19          3.2000    -1.6520    -0.6270 ha         1 R0D       0.135000
     46 H4          -6.8270     0.1390     2.4480 ha         1 R0D       0.127000
@<TRIPOS>BOND
     1     1    14 1   
     2     1    23 1   
     3     1    28 1   
     4     1    29 1   
     5     2    15 1   
     6     2    16 1   
     7     2    25 1   
     8     2    30 1   
     9     3    17 ar  
    10     3    18 ar  
    11     3    46 1   
    12     4     5 ar  
    13     4    19 ar  
    14     4    31 1   
    15     5    17 ar  
    16     5    25 1   
    17     6    20 1   
    18     6    23 1   
    19     6    32 1   
    20     6    33 1   
    21     7    11 ar  
    22     7    13 1   
    23     7    21 ar  
    24     8     9 ar  
    25     8    21 ar  
    26     8    27 1   
    27     9    10 ar  
    28     9    34 1   
    29    10    11 ar  
    30    10    35 1   
    31    11    22 1   
    32    12    13 1   
    33    12    22 2   
    34    12    36 1   
    35    13    14 1   
    36    13    20 1   
    37    14    37 1   
    38    14    38 1   
    39    15    23 1   
    40    15    26 2   
    41    16    24 1   
    42    16    39 1   
    43    16    40 1   
    44    17    24 1   
    45    18    19 ar  
    46    18    41 1   
    47    19    42 1   
    48    20    43 1   
    49    20    44 1   
    50    21    45 1   
@<TRIPOS>SUBSTRUCTURE
     1 R0D         1 TEMP              0 ****  ****    0 ROOT
