@<TRIPOS>MOLECULE
R0E
   40    41     1     0     0
SMALL
No Charge or Current Charge


@<TRIPOS>ATOM
      1 CBG         -6.8360   -24.2490    14.9120 c5         1 R0E       0.074500
      2 CBH         -8.0260   -25.2010    15.3290 c          1 R0E       0.568000
      3 CBK        -10.3990   -25.8580    14.8430 c3         1 R0E      -0.053000
      4 CBL        -11.1090   -25.8680    16.2270 c          1 R0E       0.715000
      5 CBP        -11.2070   -21.6790    13.3700 c3         1 R0E      -0.058700
      6 CBQ        -12.6980   -21.4480    13.0330 c3         1 R0E      -0.086600
      7 CBR        -10.7340   -20.6790    14.4530 c3         1 R0E      -0.086600
      8 CBS        -10.9580   -23.1680    13.7620 c3         1 R0E      -0.085400
      9 CBT         -9.4680   -23.5860    13.9860 c3         1 R0E       0.162900
     10 CBU         -8.6860   -23.5280    12.6750 c2         1 R0E      -0.221200
     11 CBV         -7.4180   -23.9030    12.4090 c2         1 R0E      -0.214200
     12 CBW         -6.4730   -24.5350    13.4310 c5         1 R0E      -0.062500
     13 CBX         -5.1050   -23.8200    13.3740 c5         1 R0E      -0.100400
     14 CBY         -4.4470   -24.3820    14.6580 c5         1 R0E       0.146800
     15 NBF         -5.5440   -24.4830    15.6570 n7         1 R0E      -0.830400
     16 NBJ         -9.2600   -24.8920    14.6890 n          1 R0E      -0.357800
     17 OBI         -7.9090   -26.1620    16.0860 o          1 R0E      -0.573000
     18 OBO        -11.0700   -24.8650    16.9270 o          1 R0E      -0.726500
     19 HBG         -7.1270   -23.2010    15.0520 h1         1 R0E       0.078700
     20 HZS        -11.1590   -25.6990    14.0710 h1         1 R0E       0.036200
     21 HBK        -10.0060   -26.8690    14.6730 h1         1 R0E       0.036200
     22 HBP        -10.6430   -21.4570    12.4570 hc         1 R0E       0.027700
     23 HZV        -12.8660   -20.4150    12.7050 hc         1 R0E       0.030367
     24 HZW        -13.0210   -22.1130    12.2230 hc         1 R0E       0.030367
     25 HBQ        -13.3310   -21.6380    13.9080 hc         1 R0E       0.030367
     26 HBR         -9.6460   -20.7110    14.5780 hc         1 R0E       0.030367
     27 HZX        -10.9990   -19.6530    14.1720 hc         1 R0E       0.030367
     28 HZY        -11.2020   -20.9000    15.4200 hc         1 R0E       0.030367
     29 HBS        -11.5230   -23.3610    14.6800 hc         1 R0E       0.070700
     30 HZZ        -11.3900   -23.8110    12.9850 hc         1 R0E       0.070700
     31 HBT         -9.0650   -22.8180    14.6550 h1         1 R0E       0.058700
     32 HBU         -9.2640   -23.1200    11.8460 ha         1 R0E       0.163000
     33 HBV         -7.0550   -23.7730    11.3870 ha         1 R0E       0.155000
     34 HBW         -6.3630   -25.6100    13.2400 hc         1 R0E       0.060700
     35 HBX         -4.5330   -24.0610    12.4710 hc         1 R0E       0.039200
     36 HZ0         -5.2080   -22.7290    13.4210 hc         1 R0E       0.039200
     37 HZ1         -4.0290   -25.3800    14.4650 h1         1 R0E       0.034200
     38 HBY         -3.6290   -23.7420    15.0160 h1         1 R0E       0.034200
     39 H2          -5.5520   -25.4410    16.0350 hn         1 R0E       0.429000
     40 O1         -11.6900   -26.8920    16.5590 o          1 R0E      -0.726500
@<TRIPOS>BOND
     1     1     2 1   
     2     1    12 1   
     3     1    15 1   
     4     1    19 1   
     5     2    16 1   
     6     2    17 2   
     7     3     4 1   
     8     3    16 1   
     9     3    20 1   
    10     3    21 1   
    11     4    18 1   
    12     4    40 1   
    13     5     6 1   
    14     5     7 1   
    15     5     8 1   
    16     5    22 1   
    17     6    23 1   
    18     6    24 1   
    19     6    25 1   
    20     7    26 1   
    21     7    27 1   
    22     7    28 1   
    23     8     9 1   
    24     8    29 1   
    25     8    30 1   
    26     9    10 1   
    27     9    16 1   
    28     9    31 1   
    29    10    11 2   
    30    10    32 1   
    31    11    12 1   
    32    11    33 1   
    33    12    13 1   
    34    12    34 1   
    35    13    14 1   
    36    13    35 1   
    37    13    36 1   
    38    14    15 1   
    39    14    37 1   
    40    14    38 1   
    41    15    39 1   
@<TRIPOS>SUBSTRUCTURE
     1 R0E         1 TEMP              0 ****  ****    0 ROOT
