@<TRIPOS>MOLECULE
R0E
   40    41     1     0     0
SMALL
abcg2


@<TRIPOS>ATOM
      1 CBG         -6.8950   -24.2910    14.8450 c5         1 R0E       0.074500
      2 CBH         -8.0660   -25.1780    15.2140 c          1 R0E       0.568000
      3 CBK        -10.3500   -25.7770    14.8730 c3         1 R0E      -0.053000
      4 CBL        -11.0760   -25.6260    16.2310 c          1 R0E       0.715000
      5 CBP        -11.1260   -21.7230    13.4370 c3         1 R0E      -0.058700
      6 CBQ        -12.5800   -21.5120    13.0260 c3         1 R0E      -0.086600
      7 CBR        -10.7710   -20.8040    14.6020 c3         1 R0E      -0.086600
      8 CBS        -10.9070   -23.2010    13.7820 c3         1 R0E      -0.085400
      9 CBT         -9.4340   -23.5820    13.9510 c3         1 R0E       0.162900
     10 CBU         -8.7270   -23.5610    12.6100 c2         1 R0E      -0.221200
     11 CBV         -7.4810   -23.9570    12.3670 c2         1 R0E      -0.214200
     12 CBW         -6.5200   -24.5040    13.3700 c5         1 R0E      -0.062500
     13 CBX         -5.1180   -23.8950    13.3440 c5         1 R0E      -0.100400
     14 CBY         -4.5530   -24.2390    14.7380 c5         1 R0E       0.146800
     15 NBF         -5.6940   -24.5870    15.6000 n7         1 R0E      -0.830400
     16 NBJ         -9.2490   -24.8610    14.6570 n          1 R0E      -0.357800
     17 OBI         -7.8970   -26.1840    15.8950 o          1 R0E      -0.573000
     18 OBO        -10.7870   -24.6450    16.9370 o          1 R0E      -0.726500
     19 HBG         -7.1460   -23.2330    14.9890 h1         1 R0E       0.078700
     20 HZS        -11.0740   -25.6550    14.0680 h1         1 R0E       0.036200
     21 HBK         -9.9810   -26.8000    14.7830 h1         1 R0E       0.036200
     22 HBP        -10.4990   -21.4500    12.5810 hc         1 R0E       0.027700
     23 HZV        -12.7710   -20.4680    12.7720 hc         1 R0E       0.030367
     24 HZW        -12.8430   -22.1180    12.1580 hc         1 R0E       0.030367
     25 HBQ        -13.2590   -21.7840    13.8380 hc         1 R0E       0.030367
     26 HBR         -9.7180   -20.8640    14.8810 hc         1 R0E       0.030367
     27 HZX        -10.9770   -19.7620    14.3510 hc         1 R0E       0.030367
     28 HZY        -11.3620   -21.0570    15.4860 hc         1 R0E       0.030367
     29 HBS        -11.4460   -23.4090    14.7080 hc         1 R0E       0.070700
     30 HZZ        -11.3580   -23.8180    12.9990 hc         1 R0E       0.070700
     31 HBT         -8.9960   -22.8060    14.5840 h1         1 R0E       0.058700
     32 HBU         -9.3080   -23.1870    11.7730 ha         1 R0E       0.163000
     33 HBV         -7.1220   -23.9110    11.3430 ha         1 R0E       0.155000
     34 HBW         -6.4170   -25.5860    13.2020 hc         1 R0E       0.060700
     35 HBX         -4.5040   -24.2870    12.5330 hc         1 R0E       0.039200
     36 HZ0         -5.1880   -22.8130    13.2110 hc         1 R0E       0.039200
     37 HZ1         -3.8550   -25.0760    14.6880 h1         1 R0E       0.034200
     38 HBY         -4.0020   -23.3890    15.1450 h1         1 R0E       0.034200
     39 H2          -5.6820   -25.5790    15.8020 hn         1 R0E       0.429000
     40 O1         -11.9090   -26.5220    16.4700 o          1 R0E      -0.726500
@<TRIPOS>BOND
     1     1     2 1   
     2     1    12 1   
     3     1    15 1   
     4     1    19 1   
     5     2    16 1   
     6     2    17 2   
     7     3     4 1   
     8     3    16 1   
     9     3    20 1   
    10     3    21 1   
    11     4    18 1   
    12     4    40 1   
    13     5     6 1   
    14     5     7 1   
    15     5     8 1   
    16     5    22 1   
    17     6    23 1   
    18     6    24 1   
    19     6    25 1   
    20     7    26 1   
    21     7    27 1   
    22     7    28 1   
    23     8     9 1   
    24     8    29 1   
    25     8    30 1   
    26     9    10 1   
    27     9    16 1   
    28     9    31 1   
    29    10    11 2   
    30    10    32 1   
    31    11    12 1   
    32    11    33 1   
    33    12    13 1   
    34    12    34 1   
    35    13    14 1   
    36    13    35 1   
    37    13    36 1   
    38    14    15 1   
    39    14    37 1   
    40    14    38 1   
    41    15    39 1   
@<TRIPOS>SUBSTRUCTURE
     1 R0E         1 TEMP              0 ****  ****    0 ROOT
