@<TRIPOS>MOLECULE
R0F
   50    53     1     0     0
SMALL
abcg2


@<TRIPOS>ATOM
      1 N1         -22.1100     7.1040    29.1340 n3         1 R0F      -0.789600
      2 N3         -16.8570     3.8270    25.2340 nb         1 R0F      -0.654000
      3 C4         -21.8900     4.8210    28.3750 c6         1 R0F      -0.094400
      4 C5         -20.4070     4.9670    28.0320 c          1 R0F       0.610100
      5 C6         -18.8030     4.8730    26.1880 ca         1 R0F      -0.080000
      6 C7         -18.1000     3.7700    25.7770 ca         1 R0F       0.314900
      7 C8         -16.2940     5.0080    25.1170 ca         1 R0F       0.361900
      8 C10        -16.2740     7.4730    25.3450 ca         1 R0F      -0.084000
      9 C13        -18.8770     7.3690    26.3910 ca         1 R0F      -0.094000
     10 C15        -22.0790     4.3890    29.8090 ca         1 R0F      -0.054300
     11 C17        -22.0940     2.6440    31.4610 ca         1 R0F       0.126000
     12 C20        -22.3960     5.3230    30.7960 ca         1 R0F      -0.060300
     13 C21        -22.5860     6.7820    30.4650 c6         1 R0F       0.235100
     14 CL         -21.9000     0.9500    31.8750 cl         1 R0F      -0.209000
     15 C16        -21.9280     3.0440    30.1470 ca         1 R0F      -0.091000
     16 C18        -22.4120     3.5570    32.4590 ca         1 R0F      -0.090000
     17 C19        -22.5610     4.8910    32.1130 ca         1 R0F      -0.100000
     18 C2         -22.1200     8.5120    28.8200 c3         1 R0F       0.110800
     19 C1         -20.8360     9.2280    29.2450 c          1 R0F       0.574100
     20 O          -20.7780    10.4630    29.2650 o          1 R0F      -0.631100
     21 N          -19.8100     8.4280    29.5440 ns         1 R0F      -0.489900
     22 C          -18.4960     8.9260    29.8910 c3         1 R0F       0.097300
     23 C3         -22.5830     6.1730    28.1330 c6         1 R0F       0.205800
     24 O1         -19.5660     5.3400    28.8420 o          1 R0F      -0.571100
     25 N2         -20.1040     4.7120    26.7340 ns         1 R0F      -0.173000
     26 C14        -18.2270     6.1630    26.0450 ca         1 R0F      -0.003000
     27 C12        -18.2340     8.5690    26.2270 ca         1 R0F      -0.089000
     28 C11        -16.9220     8.6260    25.7070 ca         1 R0F      -0.107000
     29 C9         -16.9140     6.2210    25.5010 ca         1 R0F      -0.093000
     30 H2         -22.3320     4.0750    27.7110 hc         1 R0F       0.065700
     31 H3         -18.5390     2.7850    25.8810 h4         1 R0F       0.021100
     32 H4         -15.2930     5.0430    24.6960 h4         1 R0F       0.022100
     33 H5         -15.2720     7.5020    24.9360 ha         1 R0F       0.119000
     34 H6         -19.8800     7.3410    26.7870 ha         1 R0F       0.119000
     35 H7         -22.0420     7.3900    31.1920 h1         1 R0F       0.050700
     36 H8         -23.6550     7.0390    30.5780 h1         1 R0F       0.050700
     37 H9         -21.6830     2.3180    29.3820 ha         1 R0F       0.127000
     38 H10        -22.5370     3.2310    33.4820 ha         1 R0F       0.133000
     39 H11        -22.8080     5.6120    32.8830 ha         1 R0F       0.120000
     40 H12        -22.2000     8.6440    27.7390 h1         1 R0F       0.062700
     41 H13        -22.9630     9.0530    29.2700 h1         1 R0F       0.062700
     42 H14        -19.9650     7.4300    29.4470 hn         1 R0F       0.359500
     43 H15        -17.8280     8.0770    30.0150 h1         1 R0F       0.039700
     44 H16        -18.1020     9.5730    29.1060 h1         1 R0F       0.039700
     45 H17        -18.5240     9.4940    30.8230 h1         1 R0F       0.039700
     46 H18        -22.3340     6.5500    27.1420 h1         1 R0F       0.044700
     47 H19        -23.6730     6.0230    28.1710 h1         1 R0F       0.044700
     48 H20        -20.8160     4.3080    26.1430 hn         1 R0F       0.155000
     49 H21        -18.7380     9.4880    26.5010 ha         1 R0F       0.125000
     50 H22        -16.4340     9.5860    25.5920 ha         1 R0F       0.120000
@<TRIPOS>BOND
     1     1    13 1   
     2     1    18 1   
     3     1    23 1   
     4     2     6 ar  
     5     2     7 ar  
     6     3     4 1   
     7     3    10 1   
     8     3    23 1   
     9     3    30 1   
    10     4    24 2   
    11     4    25 1   
    12     5     6 ar  
    13     5    25 1   
    14     5    26 ar  
    15     6    31 1   
    16     7    29 ar  
    17     7    32 1   
    18     8    28 ar  
    19     8    29 ar  
    20     8    33 1   
    21     9    26 ar  
    22     9    27 ar  
    23     9    34 1   
    24    10    12 ar  
    25    10    15 ar  
    26    11    14 1   
    27    11    15 ar  
    28    11    16 ar  
    29    12    13 1   
    30    12    17 ar  
    31    13    35 1   
    32    13    36 1   
    33    15    37 1   
    34    16    17 ar  
    35    16    38 1   
    36    17    39 1   
    37    18    19 1   
    38    18    40 1   
    39    18    41 1   
    40    19    20 2   
    41    19    21 1   
    42    21    22 1   
    43    21    42 1   
    44    22    43 1   
    45    22    44 1   
    46    22    45 1   
    47    23    46 1   
    48    23    47 1   
    49    25    48 1   
    50    26    29 ar  
    51    27    28 ar  
    52    27    49 1   
    53    28    50 1   
@<TRIPOS>SUBSTRUCTURE
     1 R0F         1 TEMP              0 ****  ****    0 ROOT
