@<TRIPOS>MOLECULE
R0F
   50    53     1     0     0
SMALL
No Charge or Current Charge


@<TRIPOS>ATOM
      1 N1         -21.9150     7.0790    29.0190 n3         1 R0F      -0.789600
      2 N3         -17.4480     3.7350    24.2030 nb         1 R0F      -0.654000
      3 C4         -21.8210     4.6930    28.3860 c6         1 R0F      -0.094400
      4 C5         -20.3460     4.6780    27.9380 c          1 R0F       0.610100
      5 C6         -18.9400     4.7630    25.8300 ca         1 R0F      -0.080000
      6 C7         -18.5850     3.7340    24.9330 ca         1 R0F       0.314900
      7 C8         -16.6150     4.7920    24.3410 ca         1 R0F       0.361900
      8 C10        -15.9900     6.9660    25.2730 ca         1 R0F      -0.084000
      9 C13        -18.3730     6.9980    26.7690 ca         1 R0F      -0.094000
     10 C15        -21.9810     4.3040    29.8600 ca         1 R0F      -0.054300
     11 C17        -21.9940     2.6110    31.6120 ca         1 R0F       0.126000
     12 C20        -22.2190     5.3070    30.8270 ca         1 R0F      -0.060300
     13 C21        -22.3740     6.7780    30.4090 c6         1 R0F       0.235100
     14 Cl         -21.8510     0.9280    32.1030 cl         1 R0F      -0.209000
     15 C16        -21.8690     2.9570    30.2570 ca         1 R0F      -0.091000
     16 C18        -22.2310     3.6040    32.5750 ca         1 R0F      -0.090000
     17 C19        -22.3460     4.9490    32.1830 ca         1 R0F      -0.100000
     18 C2         -22.1980     8.4950    28.6030 c3         1 R0F       0.110800
     19 C1         -21.3910     9.6070    29.3300 c          1 R0F       0.574100
     20 O          -21.8180    10.7390    29.5310 o          1 R0F      -0.631100
     21 N          -20.1390     9.2100    29.7390 ns         1 R0F      -0.489900
     22 C          -19.1750    10.0550    30.4420 c3         1 R0F       0.097300
     23 C3         -22.4370     6.0730    28.0670 c6         1 R0F       0.205800
     24 O1         -19.4090     4.6670    28.7320 o          1 R0F      -0.571100
     25 N2         -20.1490     4.6420    26.5650 ns         1 R0F      -0.173000
     26 C14        -18.0780     5.8820    25.9510 ca         1 R0F      -0.003000
     27 C12        -17.4760     8.0780    26.8460 ca         1 R0F      -0.089000
     28 C11        -16.2840     8.0600    26.1040 ca         1 R0F      -0.107000
     29 C9         -16.8870     5.8830    25.1910 ca         1 R0F      -0.093000
     30 H2         -22.3610     4.0040    27.7230 hc         1 R0F       0.065700
     31 H3         -19.2320     2.8660    24.8080 h4         1 R0F       0.021100
     32 H4         -15.7050     4.7670    23.7420 h4         1 R0F       0.022100
     33 H5         -15.0710     6.9640    24.6910 ha         1 R0F       0.119000
     34 H6         -19.2940     7.0490    27.3410 ha         1 R0F       0.119000
     35 H7         -21.8270     7.4020    31.1310 h1         1 R0F       0.050700
     36 H8         -23.4380     7.0390    30.5140 h1         1 R0F       0.050700
     37 H9         -21.6810     2.1820    29.5200 ha         1 R0F       0.127000
     38 H10        -22.3280     3.3310    33.6230 ha         1 R0F       0.133000
     39 H11        -22.5360     5.7140    32.9340 ha         1 R0F       0.120000
     40 H12        -21.9570     8.6160    27.5380 h1         1 R0F       0.062700
     41 H13        -23.2650     8.7270    28.7220 h1         1 R0F       0.062700
     42 H14        -19.9230     8.2320    29.5690 hn         1 R0F       0.359500
     43 H15        -18.2580     9.4830    30.6340 h1         1 R0F       0.039700
     44 H16        -18.9330    10.9300    29.8250 h1         1 R0F       0.039700
     45 H17        -19.6020    10.3870    31.3970 h1         1 R0F       0.039700
     46 H18        -22.2000     6.3530    27.0290 h1         1 R0F       0.044700
     47 H19        -23.5340     6.0110    28.1390 h1         1 R0F       0.044700
     48 H20        -20.9880     4.5640    26.0040 hn         1 R0F       0.155000
     49 H21        -17.7080     8.9310    27.4800 ha         1 R0F       0.125000
     50 H22        -15.5920     8.8970    26.1650 ha         1 R0F       0.120000
@<TRIPOS>BOND
     1     1    13 1   
     2     1    18 1   
     3     1    23 1   
     4     2     6 ar  
     5     2     7 ar  
     6     3     4 1   
     7     3    10 1   
     8     3    23 1   
     9     3    30 1   
    10     4    24 2   
    11     4    25 1   
    12     5     6 ar  
    13     5    25 1   
    14     5    26 ar  
    15     6    31 1   
    16     7    29 ar  
    17     7    32 1   
    18     8    28 ar  
    19     8    29 ar  
    20     8    33 1   
    21     9    26 ar  
    22     9    27 ar  
    23     9    34 1   
    24    10    12 ar  
    25    10    15 ar  
    26    11    14 1   
    27    11    15 ar  
    28    11    16 ar  
    29    12    13 1   
    30    12    17 ar  
    31    13    35 1   
    32    13    36 1   
    33    15    37 1   
    34    16    17 ar  
    35    16    38 1   
    36    17    39 1   
    37    18    19 1   
    38    18    40 1   
    39    18    41 1   
    40    19    20 2   
    41    19    21 1   
    42    21    22 1   
    43    21    42 1   
    44    22    43 1   
    45    22    44 1   
    46    22    45 1   
    47    23    46 1   
    48    23    47 1   
    49    25    48 1   
    50    26    29 ar  
    51    27    28 ar  
    52    27    49 1   
    53    28    50 1   
@<TRIPOS>SUBSTRUCTURE
     1 R0F         1 TEMP              0 ****  ****    0 ROOT
