@<TRIPOS>MOLECULE
R0G
   48    51     1     0     0
SMALL
No Charge or Current Charge


@<TRIPOS>ATOM
      1 C10        149.7950   134.7840   153.0390 ca         1 R0G      -0.073300
      2 C13        152.0070   133.2610   153.8060 ca         1 R0G      -0.114000
      3 C15        149.6730   133.8780   154.0760 ca         1 R0G      -0.120300
      4 C20        148.2110   130.1980   156.7510 ca         1 R0G      -0.031500
      5 C21        147.9880   130.2130   158.1400 ca         1 R0G      -0.067000
      6 C22        147.8820   128.9790   158.8690 cg         1 R0G       0.331000
      7 C24        147.8750   131.4430   158.8110 ca         1 R0G      -0.031500
      8 C02        144.2220   136.4290   152.8700 c6         1 R0G       0.151500
      9 C03        143.3600   135.9870   154.0720 c6         1 R0G      -0.110400
     10 C04        143.9380   134.6900   154.6800 c6         1 R0G      -0.069400
     11 C05        145.4330   134.8560   155.0480 c6         1 R0G       0.164800
     12 C06        145.7270   136.5380   153.2860 c6         1 R0G       0.169800
     13 C08        147.7550   135.2990   154.1470 c5         1 R0G       0.177500
     14 C09        148.5120   135.5260   152.7760 c5         1 R0G      -0.031100
     15 C11        151.0080   134.9480   152.3530 ca         1 R0G      -0.099000
     16 C12        152.1200   134.1770   152.7410 ca         1 R0G      -0.099000
     17 C14        150.7800   133.1080   154.4820 ca         1 R0G      -0.078000
     18 C16        148.2680   133.8760   154.6510 c5         1 R0G       0.218600
     19 C18        148.1950   132.6490   156.7060 ca         1 R0G       0.172100
     20 C19        148.3150   131.4040   156.0340 ca         1 R0G      -0.182500
     21 C25        147.9800   132.6470   158.0940 ca         1 R0G      -0.182500
     22 N01        143.6930   137.7020   152.3160 n8         1 R0G      -0.992200
     23 N07        146.2670   135.2650   153.8730 n3         1 R0G      -0.721600
     24 N23        147.7880   127.9800   159.4660 n1         1 R0G      -0.461000
     25 O17        148.2780   133.9020   156.1080 os         1 R0G      -0.351100
     26 H1         152.8690   132.6720   154.1090 ha         1 R0G       0.116000
     27 H2         148.3070   129.2500   156.2240 ha         1 R0G       0.126000
     28 H3         147.7050   131.4690   159.8870 ha         1 R0G       0.126000
     29 H4         144.1450   135.6640   152.0810 h1         1 R0G       0.072700
     30 H5         143.3420   136.7740   154.8390 hc         1 R0G       0.039200
     31 H6         142.3200   135.8190   153.7590 hc         1 R0G       0.039200
     32 H7         143.3660   134.4090   155.5750 hc         1 R0G       0.049700
     33 H8         143.8280   133.8620   153.9660 hc         1 R0G       0.049700
     34 H9         145.7740   133.8960   155.4590 h1         1 R0G       0.037200
     35 H10        145.5250   135.6000   155.8540 h1         1 R0G       0.037200
     36 H11        146.2950   136.8270   152.3910 h1         1 R0G       0.039700
     37 H12        145.8400   137.3580   154.0110 h1         1 R0G       0.039700
     38 H13        148.0250   136.0820   154.8700 h1         1 R0G       0.047700
     39 H14        148.6710   136.5880   152.5630 hc         1 R0G       0.067700
     40 H15        147.9750   135.0870   151.9270 hc         1 R0G       0.067700
     41 H16        151.0900   135.6620   151.5370 ha         1 R0G       0.118000
     42 H17        153.0690   134.2930   152.2220 ha         1 R0G       0.115000
     43 H18        150.7050   132.4070   155.3090 ha         1 R0G       0.120000
     44 H19        147.6290   133.0830   154.2410 h1         1 R0G       0.075700
     45 H20        148.5050   131.3320   154.9680 ha         1 R0G       0.131500
     46 H21        147.8910   133.5940   158.6210 ha         1 R0G       0.131500
     47 H22        142.7010   137.5700   152.0830 hn         1 R0G       0.393000
     48 H23        143.6690   138.4010   153.0660 hn         1 R0G       0.393000
@<TRIPOS>BOND
     1     1     3 ar  
     2     1    14 1   
     3     1    15 ar  
     4     2    16 ar  
     5     2    17 ar  
     6     2    26 1   
     7     3    17 ar  
     8     3    18 1   
     9     4     5 ar  
    10     4    20 ar  
    11     4    27 1   
    12     5     6 1   
    13     5     7 ar  
    14     6    24 3   
    15     7    21 ar  
    16     7    28 1   
    17     8     9 1   
    18     8    12 1   
    19     8    22 1   
    20     8    29 1   
    21     9    10 1   
    22     9    30 1   
    23     9    31 1   
    24    10    11 1   
    25    10    32 1   
    26    10    33 1   
    27    11    23 1   
    28    11    34 1   
    29    11    35 1   
    30    12    23 1   
    31    12    36 1   
    32    12    37 1   
    33    13    14 1   
    34    13    18 1   
    35    13    23 1   
    36    13    38 1   
    37    14    39 1   
    38    14    40 1   
    39    15    16 ar  
    40    15    41 1   
    41    16    42 1   
    42    17    43 1   
    43    18    25 1   
    44    18    44 1   
    45    19    20 ar  
    46    19    21 ar  
    47    19    25 1   
    48    20    45 1   
    49    21    46 1   
    50    22    47 1   
    51    22    48 1   
@<TRIPOS>SUBSTRUCTURE
     1 R0G         1 TEMP              0 ****  ****    0 ROOT
