@<TRIPOS>MOLECULE
R0G
   48    51     1     0     0
SMALL
abcg2


@<TRIPOS>ATOM
      1 C10        149.8090   134.8760   153.0230 ca         1 R0G      -0.073300
      2 C13        151.9960   133.3080   153.7020 ca         1 R0G      -0.114000
      3 C15        149.6960   133.8970   154.0070 ca         1 R0G      -0.120300
      4 C20        148.0470   130.2500   156.7970 ca         1 R0G      -0.031500
      5 C21        147.8600   130.3400   158.1800 ca         1 R0G      -0.067000
      6 C22        147.7150   129.1600   158.9610 cg         1 R0G       0.331000
      7 C24        147.8200   131.6020   158.7920 ca         1 R0G      -0.031500
      8 C02        144.2690   136.3760   152.9630 c6         1 R0G       0.151500
      9 C03        143.4320   135.8620   154.1330 c6         1 R0G      -0.110400
     10 C04        144.0020   134.5480   154.6590 c6         1 R0G      -0.069400
     11 C05        145.4830   134.6850   154.9910 c6         1 R0G       0.164800
     12 C06        145.7420   136.4370   153.3570 c6         1 R0G       0.169800
     13 C08        147.6820   135.2150   154.0830 c5         1 R0G       0.177500
     14 C09        148.5030   135.5920   152.8270 c5         1 R0G      -0.031100
     15 C11        151.0180   135.0750   152.3670 ca         1 R0G      -0.099000
     16 C12        152.1110   134.2830   152.7110 ca         1 R0G      -0.099000
     17 C14        150.7840   133.1080   154.3580 ca         1 R0G      -0.078000
     18 C16        148.2940   133.8810   154.5580 c5         1 R0G       0.218600
     19 C18        148.1430   132.6510   156.6440 ca         1 R0G       0.172100
     20 C19        148.1900   131.3940   156.0300 ca         1 R0G      -0.182500
     21 C25        147.9580   132.7420   158.0300 ca         1 R0G      -0.182500
     22 N01        143.8630   137.6940   152.4560 n8         1 R0G      -0.992200
     23 N07        146.2470   135.1440   153.8260 n3         1 R0G      -0.721600
     24 N23        147.5930   128.2010   159.5930 n1         1 R0G      -0.461000
     25 O17        148.2680   133.8280   155.9980 os         1 R0G      -0.351100
     26 H1         152.8560   132.7060   153.9670 ha         1 R0G       0.116000
     27 H2         148.0870   129.2800   156.3220 ha         1 R0G       0.126000
     28 H3         147.6750   131.6790   159.8620 ha         1 R0G       0.126000
     29 H4         144.1770   135.6700   152.1310 h1         1 R0G       0.072700
     30 H5         143.4520   136.6160   154.9290 hc         1 R0G       0.039200
     31 H6         142.3900   135.7430   153.8250 hc         1 R0G       0.039200
     32 H7         143.4660   134.2250   155.5540 hc         1 R0G       0.049700
     33 H8         143.8790   133.7630   153.9070 hc         1 R0G       0.049700
     34 H9         145.8680   133.7180   155.3090 h1         1 R0G       0.037200
     35 H10        145.6110   135.3810   155.8390 h1         1 R0G       0.037200
     36 H11        146.3190   136.7540   152.4910 h1         1 R0G       0.039700
     37 H12        145.8680   137.2110   154.1380 h1         1 R0G       0.039700
     38 H13        147.9030   135.9530   154.8740 h1         1 R0G       0.047700
     39 H14        148.6260   136.6680   152.7090 hc         1 R0G       0.067700
     40 H15        147.9910   135.2190   151.9340 hc         1 R0G       0.067700
     41 H16        151.1130   135.8400   151.6060 ha         1 R0G       0.118000
     42 H17        153.0610   134.4300   152.2120 ha         1 R0G       0.115000
     43 H18        150.7060   132.3570   155.1340 ha         1 R0G       0.120000
     44 H19        147.7090   133.0510   154.1580 h1         1 R0G       0.075700
     45 H20        148.3510   131.2940   154.9680 ha         1 R0G       0.131500
     46 H21        147.9230   133.7220   158.4880 ha         1 R0G       0.131500
     47 H22        142.9030   137.6470   152.1310 hn         1 R0G       0.393000
     48 H23        143.8610   138.3620   153.2230 hn         1 R0G       0.393000
@<TRIPOS>BOND
     1     1     3 ar  
     2     1    14 1   
     3     1    15 ar  
     4     2    16 ar  
     5     2    17 ar  
     6     2    26 1   
     7     3    17 ar  
     8     3    18 1   
     9     4     5 ar  
    10     4    20 ar  
    11     4    27 1   
    12     5     6 1   
    13     5     7 ar  
    14     6    24 3   
    15     7    21 ar  
    16     7    28 1   
    17     8     9 1   
    18     8    12 1   
    19     8    22 1   
    20     8    29 1   
    21     9    10 1   
    22     9    30 1   
    23     9    31 1   
    24    10    11 1   
    25    10    32 1   
    26    10    33 1   
    27    11    23 1   
    28    11    34 1   
    29    11    35 1   
    30    12    23 1   
    31    12    36 1   
    32    12    37 1   
    33    13    14 1   
    34    13    18 1   
    35    13    23 1   
    36    13    38 1   
    37    14    39 1   
    38    14    40 1   
    39    15    16 ar  
    40    15    41 1   
    41    16    42 1   
    42    17    43 1   
    43    18    25 1   
    44    18    44 1   
    45    19    20 ar  
    46    19    21 ar  
    47    19    25 1   
    48    20    45 1   
    49    21    46 1   
    50    22    47 1   
    51    22    48 1   
@<TRIPOS>SUBSTRUCTURE
     1 R0G         1 TEMP              0 ****  ****    0 ROOT
