@<TRIPOS>MOLECULE
R0H
   42    45     1     0     0
SMALL
abcg2


@<TRIPOS>ATOM
      1 C18        -46.2800   -29.4800     6.0190 ca         1 R0H       0.199500
      2 C15        -48.9030   -28.7190     3.5460 ca         1 R0H      -0.051000
      3 C14        -50.2610   -28.6520     3.8290 ca         1 R0H      -0.173000
      4 C13        -50.7060   -28.9390     5.1140 ca         1 R0H       0.184000
      5 C12        -49.8640   -29.2710     6.1540 ca         1 R0H      -0.173000
      6 C11        -48.5080   -29.3240     5.8480 ca         1 R0H       0.004800
      7 C10        -47.9920   -29.0840     4.5430 cp         1 R0H      -0.053000
      8 C20        -44.0810   -29.3840     5.7400 ca         1 R0H       0.188900
      9 C01        -44.3120   -33.4170    -0.3450 c3         1 R0H       0.151900
     10 C03        -45.3970   -31.5360     0.5980 c          1 R0H       0.585100
     11 C04        -45.7800   -30.0730     0.3670 c5         1 R0H      -0.128000
     12 C05        -44.5080   -29.2030     0.2930 c5         1 R0H      -0.085400
     13 C06        -44.0890   -29.0620     1.7510 c5         1 R0H       0.223800
     14 C08        -45.3830   -29.1690     3.8340 ca         1 R0H       0.446900
     15 C09        -46.5440   -29.2260     4.6520 cp         1 R0H      -0.234000
     16 C22        -46.4680   -29.5120     1.6150 c5         1 R0H       0.232800
     17 C23        -46.6610   -29.9910    -0.8840 c3         1 R0H       0.174600
     18 F16        -52.0420   -28.8730     5.3630 f          1 R0H      -0.185000
     19 N07        -45.3650   -29.1000     2.4860 nh         1 R0H      -0.774300
     20 N17        -47.4580   -29.5740     6.7040 na         1 R0H      -0.331300
     21 N19        -45.0800   -29.5780     6.5970 nb         1 R0H      -0.246000
     22 N21        -44.1640   -29.1910     4.4300 nb         1 R0H      -0.299000
     23 O02        -44.7380   -32.0410    -0.4480 os         1 R0H      -0.451100
     24 O24        -47.0330   -28.6320    -1.1010 oh         1 R0H      -0.668000
     25 O25        -45.6440   -32.1710     1.5980 o          1 R0H      -0.466000
     26 H151       -48.5760   -28.4700     2.5500 ha         1 R0H       0.119000
     27 H141       -50.9740   -28.3730     3.0660 ha         1 R0H       0.131000
     28 H121       -50.2410   -29.4610     7.1490 ha         1 R0H       0.137000
     29 H201       -43.0780   -29.3970     6.1570 h5         1 R0H       0.046100
     30 H011       -43.8080   -33.6330    -1.2820 h1         1 R0H       0.053033
     31 H013       -43.6290   -33.5330     0.4950 h1         1 R0H       0.053033
     32 H012       -45.1750   -34.0670    -0.2130 h1         1 R0H       0.053033
     33 H052       -44.7780   -28.2360    -0.1290 hc         1 R0H       0.075200
     34 H051       -43.7270   -29.6450    -0.3230 hc         1 R0H       0.075200
     35 H061       -43.4510   -29.8910     2.0670 h1         1 R0H       0.065700
     36 H062       -43.5530   -28.1360     1.9530 h1         1 R0H       0.065700
     37 H222       -47.0920   -30.2520     2.1070 h1         1 R0H       0.077200
     38 H221       -47.0720   -28.6570     1.3170 h1         1 R0H       0.077200
     39 H232       -46.1060   -30.3790    -1.7410 h1         1 R0H       0.039700
     40 H231       -47.5510   -30.6140    -0.7400 h1         1 R0H       0.039700
     41 H171       -47.5300   -29.7150     7.6990 hn         1 R0H       0.368000
     42 H241       -47.6460   -28.6050    -1.8450 ho         1 R0H       0.452000
@<TRIPOS>BOND
     1     1    15 ar  
     2     1    20 1   
     3     1    21 ar  
     4     2     3 ar  
     5     2     7 ar  
     6     2    26 1   
     7     3     4 ar  
     8     3    27 1   
     9     4     5 ar  
    10     4    18 1   
    11     5     6 ar  
    12     5    28 1   
    13     6     7 ar  
    14     6    20 1   
    15     7    15 1   
    16     8    21 ar  
    17     8    22 ar  
    18     8    29 1   
    19     9    23 1   
    20     9    30 1   
    21     9    31 1   
    22     9    32 1   
    23    10    11 1   
    24    10    23 1   
    25    10    25 2   
    26    11    12 1   
    27    11    16 1   
    28    11    17 1   
    29    12    13 1   
    30    12    33 1   
    31    12    34 1   
    32    13    19 1   
    33    13    35 1   
    34    13    36 1   
    35    14    15 ar  
    36    14    19 1   
    37    14    22 ar  
    38    16    19 1   
    39    16    37 1   
    40    16    38 1   
    41    17    24 1   
    42    17    39 1   
    43    17    40 1   
    44    20    41 1   
    45    24    42 1   
@<TRIPOS>SUBSTRUCTURE
     1 R0H         1 TEMP              0 ****  ****    0 ROOT
