@<TRIPOS>MOLECULE
R0H
   42    45     1     0     0
SMALL
No Charge or Current Charge


@<TRIPOS>ATOM
      1 C18        -46.5420   -29.9650     6.1320 ca         1 R0H       0.199500
      2 C15        -48.6300   -28.0850     3.7040 ca         1 R0H      -0.051000
      3 C14        -49.9070   -27.5320     3.9520 ca         1 R0H      -0.173000
      4 C13        -50.5350   -27.7070     5.2080 ca         1 R0H       0.184000
      5 C12        -49.8970   -28.4190     6.2430 ca         1 R0H      -0.173000
      6 C11        -48.6400   -28.9600     5.9600 ca         1 R0H       0.004800
      7 C10        -48.0130   -28.8360     4.7260 cp         1 R0H      -0.053000
      8 C20        -44.4610   -30.7090     5.6090 ca         1 R0H       0.188900
      9 C01        -43.0660   -32.6760    -0.5180 c3         1 R0H       0.151900
     10 C03        -44.9580   -31.5830     0.5110 c          1 R0H       0.585100
     11 C04        -45.9150   -30.3660     0.3340 c5         1 R0H      -0.128000
     12 C05        -45.0990   -29.0280     0.2970 c5         1 R0H      -0.085400
     13 C06        -44.5760   -28.9250     1.7510 c5         1 R0H       0.223800
     14 C08        -45.6660   -29.7200     3.9010 ca         1 R0H       0.446900
     15 C09        -46.7110   -29.4980     4.8240 cp         1 R0H      -0.234000
     16 C22        -46.7170   -30.1570     1.6540 c5         1 R0H       0.232800
     17 C23        -46.7930   -30.6270    -0.9170 c3         1 R0H       0.174600
     18 F16        -51.7500   -27.1600     5.4270 f          1 R0H      -0.185000
     19 N07        -45.7410   -29.4350     2.5250 nh         1 R0H      -0.774300
     20 N17        -47.7410   -29.6480     6.7820 na         1 R0H      -0.331300
     21 N19        -45.4230   -30.5730     6.5490 nb         1 R0H      -0.246000
     22 N21        -44.5280   -30.3220     4.3130 nb         1 R0H      -0.299000
     23 O02        -44.0430   -31.6180    -0.5130 os         1 R0H      -0.451100
     24 O24        -47.7530   -29.5770    -1.1080 oh         1 R0H      -0.668000
     25 O25        -44.9890   -32.4150     1.4090 o          1 R0H      -0.466000
     26 H151       -48.1310   -27.9090     2.7560 ha         1 R0H       0.119000
     27 H141       -50.4060   -26.9550     3.1790 ha         1 R0H       0.131000
     28 H121       -50.3600   -28.5290     7.2190 ha         1 R0H       0.137000
     29 H201       -43.5390   -31.1950     5.9230 h5         1 R0H       0.046100
     30 H011       -42.4030   -32.5800    -1.3860 h1         1 R0H       0.053033
     31 H013       -42.4470   -32.6420     0.3880 h1         1 R0H       0.053033
     32 H012       -43.5530   -33.6590    -0.5690 h1         1 R0H       0.053033
     33 H052       -45.7410   -28.1710     0.0630 hc         1 R0H       0.075200
     34 H051       -44.2870   -29.0250    -0.4380 hc         1 R0H       0.075200
     35 H061       -43.6830   -29.5500     1.8940 h1         1 R0H       0.065700
     36 H062       -44.3170   -27.8900     2.0170 h1         1 R0H       0.065700
     37 H222       -47.0560   -31.1060     2.0930 h1         1 R0H       0.077200
     38 H221       -47.6130   -29.5490     1.4770 h1         1 R0H       0.077200
     39 H232       -46.1450   -30.7090    -1.8000 h1         1 R0H       0.039700
     40 H231       -47.3080   -31.5900    -0.7940 h1         1 R0H       0.039700
     41 H171       -47.9240   -29.8840     7.7500 hn         1 R0H       0.368000
     42 H241       -48.2430   -29.7820    -1.9360 ho         1 R0H       0.452000
@<TRIPOS>BOND
     1     1    15 ar  
     2     1    20 1   
     3     1    21 ar  
     4     2     3 ar  
     5     2     7 ar  
     6     2    26 1   
     7     3     4 ar  
     8     3    27 1   
     9     4     5 ar  
    10     4    18 1   
    11     5     6 ar  
    12     5    28 1   
    13     6     7 ar  
    14     6    20 1   
    15     7    15 1   
    16     8    21 ar  
    17     8    22 ar  
    18     8    29 1   
    19     9    23 1   
    20     9    30 1   
    21     9    31 1   
    22     9    32 1   
    23    10    11 1   
    24    10    23 1   
    25    10    25 2   
    26    11    12 1   
    27    11    16 1   
    28    11    17 1   
    29    12    13 1   
    30    12    33 1   
    31    12    34 1   
    32    13    19 1   
    33    13    35 1   
    34    13    36 1   
    35    14    15 ar  
    36    14    19 1   
    37    14    22 ar  
    38    16    19 1   
    39    16    37 1   
    40    16    38 1   
    41    17    24 1   
    42    17    39 1   
    43    17    40 1   
    44    20    41 1   
    45    24    42 1   
@<TRIPOS>SUBSTRUCTURE
     1 R0H         1 TEMP              0 ****  ****    0 ROOT
