@<TRIPOS>MOLECULE
R0J
   49    53     1     0     0
SMALL
abcg2


@<TRIPOS>ATOM
      1 C10         19.6500    19.7940    18.3700 c3         1 R0J       0.101700
      2 C15         18.9270    15.0680    17.1970 cx         1 R0J       0.045700
      3 C17         19.9640    14.0060    16.9900 cx         1 R0J      -0.123400
      4 C20         20.5630    15.6960    21.3530 ca         1 R0J       0.338900
      5 C22         20.4820    17.9220    20.8010 ca         1 R0J       0.356900
      6 C02         14.9910    16.1100    18.8720 c3         1 R0J       0.302000
      7 C05         15.3690    17.4470    18.2980 c3         1 R0J      -0.153400
      8 C06         16.1950    18.2930    19.2580 c3         1 R0J      -0.097400
      9 C09         18.8140    20.4900    19.3960 cc         1 R0J       0.399800
     10 C12         19.1410    17.5260    17.4620 c          1 R0J       0.594000
     11 C16         19.5190    14.8520    15.8430 cx         1 R0J      -0.123400
     12 C18         19.7770    16.2610    19.2150 ca         1 R0J       0.041600
     13 C19         20.0640    15.2670    20.1270 ca         1 R0J      -0.162000
     14 C23         19.9790    17.5990    19.5580 ca         1 R0J      -0.070400
     15 C25         18.2470    21.6880    21.0480 ca         1 R0J       0.479000
     16 C27         17.1220    22.7730    22.6330 ca         1 R0J       0.434000
     17 C29         15.8800    22.3060    22.1830 ca         1 R0J      -0.138000
     18 C30         15.8380    21.4700    21.0820 ca         1 R0J      -0.060000
     19 C31         17.0630    21.1610    20.5130 ca         1 R0J      -0.135200
     20 F01         16.0700    15.3700    19.1880 f          1 R0J      -0.116667
     21 F03         14.2670    16.2200    19.9950 f          1 R0J      -0.116667
     22 F04         14.2650    15.3820    18.0130 f          1 R0J      -0.116667
     23 N08         17.4550    20.4020    19.4450 na         1 R0J      -0.154600
     24 N11         19.5810    18.3560    18.4730 n          1 R0J      -0.299000
     25 N14         19.2890    16.2360    17.9320 n          1 R0J      -0.262000
     26 N21         20.7700    16.9660    21.6830 nb         1 R0J      -0.660000
     27 N24         19.3200    21.2500    20.3320 nd         1 R0J      -0.624700
     28 N26         18.2840    22.4940    22.1040 nb         1 R0J      -0.594000
     29 CL28        17.1380    23.8220    24.0190 cl         1 R0J      -0.163000
     30 H1          20.6800    20.1300    18.5010 h1         1 R0J       0.095200
     31 H2          19.3430    20.0740    17.3620 h1         1 R0J       0.095200
     32 H3          17.9070    14.7400    17.3560 h1         1 R0J       0.097700
     33 H4          19.6330    12.9790    17.0470 hc         1 R0J       0.085200
     34 H5          20.9560    14.1830    17.3860 hc         1 R0J       0.085200
     35 H6          20.8080    14.9580    22.1090 h4         1 R0J       0.025100
     36 H7          20.6560    18.9490    21.1010 h4         1 R0J       0.049100
     37 H8          15.9200    17.2760    17.3700 hc         1 R0J       0.085200
     38 H9          14.4500    17.9710    18.0250 hc         1 R0J       0.085200
     39 H10         17.1020    17.7630    19.5570 hc         1 R0J       0.070200
     40 H11         15.6340    18.4900    20.1740 hc         1 R0J       0.070200
     41 H12         17.0720    19.4530    17.6460 h1         1 R0J       0.072200
     42 H13         15.6880    20.2100    18.3870 h1         1 R0J       0.072200
     43 H14         20.2120    15.5920    15.4660 hc         1 R0J       0.085200
     44 H15         18.8740    14.4170    15.0920 hc         1 R0J       0.085200
     45 H16         19.9150    14.2170    19.9170 ha         1 R0J       0.137000
     46 H17         14.9710    22.5950    22.6890 ha         1 R0J       0.141000
     47 H18         14.8960    21.0930    20.7070 ha         1 R0J       0.129000
     48 O13         18.6990    17.8650    16.3840 o          1 R0J      -0.564000
     49 C07         16.5780    19.6160    18.6030 c3         1 R0J       0.074600
@<TRIPOS>BOND
     1     1     9 1   
     2     1    24 1   
     3     1    30 1   
     4     1    31 1   
     5     2     3 1   
     6     2    11 1   
     7     2    25 1   
     8     2    32 1   
     9     3    11 1   
    10     3    33 1   
    11     3    34 1   
    12     4    13 ar  
    13     4    26 ar  
    14     4    35 1   
    15     5    14 ar  
    16     5    26 ar  
    17     5    36 1   
    18     6     7 1   
    19     6    20 1   
    20     6    21 1   
    21     6    22 1   
    22     7     8 1   
    23     7    37 1   
    24     7    38 1   
    25     8    39 1   
    26     8    40 1   
    27     8    49 1   
    28     9    23 1   
    29     9    27 2   
    30    10    24 1   
    31    10    25 1   
    32    10    48 2   
    33    11    43 1   
    34    11    44 1   
    35    12    13 ar  
    36    12    14 ar  
    37    12    25 1   
    38    13    45 1   
    39    14    24 1   
    40    15    19 ar  
    41    15    27 1   
    42    15    28 ar  
    43    16    17 ar  
    44    16    28 ar  
    45    16    29 1   
    46    17    18 ar  
    47    17    46 1   
    48    18    19 ar  
    49    18    47 1   
    50    19    23 1   
    51    23    49 1   
    52    41    49 1   
    53    42    49 1   
@<TRIPOS>SUBSTRUCTURE
     1 R0J         1 TEMP              0 ****  ****    0 ROOT
