@<TRIPOS>MOLECULE
R0J
   49    53     1     0     0
SMALL
No Charge or Current Charge


@<TRIPOS>ATOM
      1 C10         19.7870    19.8740    18.3990 c3         1 R0J       0.101700
      2 C15         18.9260    15.1160    17.0100 cx         1 R0J       0.045700
      3 C17         19.8630    13.9490    16.8020 cx         1 R0J      -0.123400
      4 C20         20.2450    15.5420    21.3520 ca         1 R0J       0.338900
      5 C22         20.2590    17.8350    20.8820 ca         1 R0J       0.356900
      6 C02         15.2850    15.9060    19.1420 c3         1 R0J       0.302000
      7 C05         15.5600    17.2760    18.4840 c3         1 R0J      -0.153400
      8 C06         16.2810    18.2930    19.4050 c3         1 R0J      -0.097400
      9 C09         18.9080    20.6100    19.3870 cc         1 R0J       0.399800
     10 C12         19.2040    17.6280    17.3450 c          1 R0J       0.594000
     11 C16         19.4810    14.8260    15.6350 cx         1 R0J      -0.123400
     12 C18         19.7510    16.2620    19.1260 ca         1 R0J       0.041600
     13 C19         19.8860    15.2050    20.0300 ca         1 R0J      -0.162000
     14 C23         19.9810    17.5620    19.5320 ca         1 R0J      -0.070400
     15 C25         18.2440    21.8770    21.0170 ca         1 R0J       0.479000
     16 C27         16.9890    22.9910    22.5830 ca         1 R0J       0.434000
     17 C29         15.7880    22.4140    22.1140 ca         1 R0J      -0.138000
     18 C30         15.8390    21.5190    21.0310 ca         1 R0J      -0.060000
     19 C31         17.1160    21.2790    20.5070 ca         1 R0J      -0.135200
     20 F01         16.4340    15.3140    19.5390 f          1 R0J      -0.116667
     21 F03         14.4840    16.0370    20.2240 f          1 R0J      -0.116667
     22 F04         14.6720    15.0760    18.2690 f          1 R0J      -0.116667
     23 N08         17.5180    20.4800    19.4790 na         1 R0J      -0.154600
     24 N11         19.6020    18.4060    18.4440 n          1 R0J      -0.299000
     25 N14         19.3000    16.2950    17.7780 n          1 R0J      -0.262000
     26 N21         20.4180    16.8250    21.7810 nb         1 R0J      -0.660000
     27 N24         19.3730    21.4640    20.3200 nd         1 R0J      -0.624700
     28 N26         18.2080    22.7330    22.0500 nb         1 R0J      -0.594000
     29 Cl28        16.9590    24.1140    23.9340 cl         1 R0J      -0.163000
     30 H1          20.8370    20.1060    18.6130 h1         1 R0J       0.095200
     31 H2          19.5650    20.2470    17.3910 h1         1 R0J       0.095200
     32 H3          17.8720    14.9050    17.1920 h1         1 R0J       0.097700
     33 H4          19.4390    12.9490    16.8480 hc         1 R0J       0.085200
     34 H5          20.8750    14.0350    17.1890 hc         1 R0J       0.085200
     35 H6          20.3680    14.7630    22.1030 h4         1 R0J       0.025100
     36 H7          20.3580    18.8550    21.2530 h4         1 R0J       0.049100
     37 H8          16.1640    17.1120    17.5830 hc         1 R0J       0.085200
     38 H9          14.6070    17.7040    18.1490 hc         1 R0J       0.085200
     39 H10         17.2130    17.8470    19.7700 hc         1 R0J       0.070200
     40 H11         15.6670    18.4950    20.2910 hc         1 R0J       0.070200
     41 H12         17.0540    19.4310    17.7210 h1         1 R0J       0.072200
     42 H13         15.6680    20.1800    18.5120 h1         1 R0J       0.072200
     43 H14         20.2370    15.5000    15.2400 hc         1 R0J       0.085200
     44 H15         18.7990    14.4190    14.8920 hc         1 R0J       0.085200
     45 H16         19.7050    14.1730    19.7440 ha         1 R0J       0.137000
     46 H17         14.8430    22.6630    22.5880 ha         1 R0J       0.141000
     47 H18         14.9420    21.0480    20.6340 ha         1 R0J       0.129000
     48 O13         18.8440    18.0300    16.2480 o          1 R0J      -0.564000
     49 C07         16.5990    19.6300    18.6980 c3         1 R0J       0.074600
@<TRIPOS>BOND
     1     1     9 1   
     2     1    24 1   
     3     1    30 1   
     4     1    31 1   
     5     2     3 1   
     6     2    11 1   
     7     2    25 1   
     8     2    32 1   
     9     3    11 1   
    10     3    33 1   
    11     3    34 1   
    12     4    13 ar  
    13     4    26 ar  
    14     4    35 1   
    15     5    14 ar  
    16     5    26 ar  
    17     5    36 1   
    18     6     7 1   
    19     6    20 1   
    20     6    21 1   
    21     6    22 1   
    22     7     8 1   
    23     7    37 1   
    24     7    38 1   
    25     8    39 1   
    26     8    40 1   
    27     8    49 1   
    28     9    23 1   
    29     9    27 2   
    30    10    24 1   
    31    10    25 1   
    32    10    48 2   
    33    11    43 1   
    34    11    44 1   
    35    12    13 ar  
    36    12    14 ar  
    37    12    25 1   
    38    13    45 1   
    39    14    24 1   
    40    15    19 ar  
    41    15    27 1   
    42    15    28 ar  
    43    16    17 ar  
    44    16    28 ar  
    45    16    29 1   
    46    17    18 ar  
    47    17    46 1   
    48    18    19 ar  
    49    18    47 1   
    50    19    23 1   
    51    23    49 1   
    52    41    49 1   
    53    42    49 1   
@<TRIPOS>SUBSTRUCTURE
     1 R0J         1 TEMP              0 ****  ****    0 ROOT
