@<TRIPOS>MOLECULE
R0K
   35    34     1     0     0
SMALL
abcg2


@<TRIPOS>ATOM
      1 C1         -30.4690    16.6280   -33.7890 c          1 R0K       0.714000
      2 O1         -29.6020    15.7290   -33.7650 o          1 R0K      -0.767000
      3 O2         -31.2310    16.9490   -32.8550 o          1 R0K      -0.767000
      4 C2         -30.6110    17.3900   -35.1230 c3         1 R0K      -0.195400
      5 C6         -33.6150    20.6450   -35.9660 c          1 R0K       0.722000
      6 C5         -32.1390    20.7450   -36.4330 c3         1 R0K      -0.032300
      7 C4         -31.4580    19.3730   -36.4350 c3         1 R0K      -0.062400
      8 C3         -31.3920    18.6940   -35.0730 c3         1 R0K      -0.054400
      9 N1         -31.4470    21.7060   -35.6050 ns         1 R0K      -0.461900
     10 N          -32.1100    24.7150   -36.7250 n8         1 R0K      -1.006200
     11 CA         -31.3000    25.5030   -35.8050 c3         1 R0K       0.034500
     12 C          -31.2050    26.9800   -36.2800 c          1 R0K       0.716000
     13 OXT        -30.3190    27.6780   -35.7510 o          1 R0K      -0.755500
     14 CB         -29.9150    24.8890   -35.6110 c3         1 R0K      -0.037400
     15 CD         -30.3680    22.4060   -35.9750 c          1 R0K       0.611100
     16 OE1        -29.7440    22.1890   -37.0100 o          1 R0K      -0.676100
     17 O          -32.0450    27.3600   -37.1210 o          1 R0K      -0.755500
     18 H20        -31.0850    16.7120   -35.8450 hc         1 R0K       0.003200
     19 H3         -29.6100    17.5730   -35.5280 hc         1 R0K       0.003200
     20 H4         -32.1470    21.1140   -37.4660 h1         1 R0K       0.040700
     21 H5         -31.9890    18.7310   -37.1420 hc         1 R0K       0.018700
     22 H6         -30.4460    19.4870   -36.8350 hc         1 R0K       0.018700
     23 H7         -30.9290    19.3690   -34.3480 hc         1 R0K       0.046200
     24 H8         -32.4040    18.5000   -34.7070 hc         1 R0K       0.046200
     25 H9         -31.9750    21.9990   -34.7950 hn         1 R0K       0.330500
     26 HA         -31.7660    25.5540   -34.8050 h1         1 R0K      -0.010300
     27 H16        -29.3830    24.8650   -36.5670 hc         1 R0K       0.039700
     28 H17        -29.3400    25.5370   -34.9500 hc         1 R0K       0.039700
     29 O3         -34.3440    19.9070   -36.6500 o          1 R0K      -0.746500
     30 H          -32.6500    24.0230   -36.2230 hn         1 R0K       0.397000
     31 O4         -33.9370    21.3030   -34.9550 o          1 R0K      -0.746500
     32 CG         -29.9310    23.4850   -35.0040 c3         1 R0K      -0.156400
     33 H2         -32.7710    25.3470   -37.1600 hn         1 R0K       0.397000
     34 H18        -30.5500    23.4820   -34.1020 hc         1 R0K       0.027200
     35 H19        -28.9170    23.2290   -34.6840 hc         1 R0K       0.027200
@<TRIPOS>BOND
     1     1     2 1   
     2     1     3 1   
     3     1     4 1   
     4     4     8 1   
     5     4    18 1   
     6     4    19 1   
     7     5     6 1   
     8     5    29 1   
     9     5    31 1   
    10     6     7 1   
    11     6     9 1   
    12     6    20 1   
    13     7     8 1   
    14     7    21 1   
    15     7    22 1   
    16     8    23 1   
    17     8    24 1   
    18     9    15 1   
    19     9    25 1   
    20    10    11 1   
    21    10    30 1   
    22    10    33 1   
    23    11    12 1   
    24    11    14 1   
    25    11    26 1   
    26    12    13 1   
    27    12    17 1   
    28    14    27 1   
    29    14    28 1   
    30    14    32 1   
    31    15    16 2   
    32    15    32 1   
    33    32    34 1   
    34    32    35 1   
@<TRIPOS>SUBSTRUCTURE
     1 R0K         1 TEMP              0 ****  ****    0 ROOT
