@<TRIPOS>MOLECULE
R0K
   35    34     1     0     0
SMALL
No Charge or Current Charge


@<TRIPOS>ATOM
      1 C1         -30.5810    16.9110   -33.5020 c          1 R0K       0.714000
      2 O1         -29.6190    17.2480   -32.8290 o          1 R0K      -0.767000
      3 O2         -31.5090    16.2490   -33.0630 o          1 R0K      -0.767000
      4 C2         -30.6540    17.3920   -34.9650 c3         1 R0K      -0.195400
      5 C6         -33.7090    20.6010   -36.2170 c          1 R0K       0.722000
      6 C5         -32.1960    20.6840   -36.6140 c3         1 R0K      -0.032300
      7 C4         -31.4830    19.3090   -36.4880 c3         1 R0K      -0.062400
      8 C3         -31.3690    18.7640   -35.0420 c3         1 R0K      -0.054400
      9 N1         -31.5040    21.7530   -35.8520 ns         1 R0K      -0.461900
     10 N          -32.0730    24.8380   -36.9050 n8         1 R0K      -1.006200
     11 CA         -31.2690    25.4590   -35.7910 c3         1 R0K       0.034500
     12 C          -31.2090    27.0520   -35.7890 c          1 R0K       0.716000
     13 OXT        -30.3060    27.6230   -36.3890 o          1 R0K      -0.755500
     14 CB         -29.8450    24.8330   -35.6970 c3         1 R0K      -0.037400
     15 CD         -30.3060    22.3420   -36.1950 c          1 R0K       0.611100
     16 OE1        -29.6860    22.0410   -37.2080 o          1 R0K      -0.676100
     17 O          -32.0860    27.6600   -35.1870 o          1 R0K      -0.755500
     18 H20        -31.2620    16.7040   -35.5680 hc         1 R0K       0.003200
     19 H3         -29.6470    17.5570   -35.3680 hc         1 R0K       0.003200
     20 H4         -32.1720    20.9740   -37.6730 h1         1 R0K       0.040700
     21 H5         -32.0230    18.5790   -37.1030 hc         1 R0K       0.018700
     22 H6         -30.4770    19.3880   -36.9170 hc         1 R0K       0.018700
     23 H7         -30.8220    19.4850   -34.4220 hc         1 R0K       0.046200
     24 H8         -32.3720    18.6670   -34.6090 hc         1 R0K       0.046200
     25 H9         -31.9280    22.0560   -34.9820 hn         1 R0K       0.330500
     26 HA         -31.7930    25.1820   -34.8660 h1         1 R0K      -0.010300
     27 H16        -29.3380    24.9070   -36.6680 hc         1 R0K       0.039700
     28 H17        -29.2560    25.4420   -35.0000 hc         1 R0K       0.039700
     29 O3         -34.5120    20.2660   -37.0780 o          1 R0K      -0.746500
     30 H          -32.1820    23.8320   -36.7330 hn         1 R0K       0.397000
     31 O4         -34.0490    20.9880   -35.1060 o          1 R0K      -0.746500
     32 CG         -29.7840    23.3700   -35.1810 c3         1 R0K      -0.156400
     33 H2         -33.0340    25.1980   -36.8630 hn         1 R0K       0.397000
     34 H18        -30.3550    23.3080   -34.2460 hc         1 R0K       0.027200
     35 H19        -28.7330    23.1370   -34.9720 hc         1 R0K       0.027200
@<TRIPOS>BOND
     1     1     2 1   
     2     1     3 1   
     3     1     4 1   
     4     4     8 1   
     5     4    18 1   
     6     4    19 1   
     7     5     6 1   
     8     5    29 1   
     9     5    31 1   
    10     6     7 1   
    11     6     9 1   
    12     6    20 1   
    13     7     8 1   
    14     7    21 1   
    15     7    22 1   
    16     8    23 1   
    17     8    24 1   
    18     9    15 1   
    19     9    25 1   
    20    10    11 1   
    21    10    30 1   
    22    10    33 1   
    23    11    12 1   
    24    11    14 1   
    25    11    26 1   
    26    12    13 1   
    27    12    17 1   
    28    14    27 1   
    29    14    28 1   
    30    14    32 1   
    31    15    16 2   
    32    15    32 1   
    33    32    34 1   
    34    32    35 1   
@<TRIPOS>SUBSTRUCTURE
     1 R0K         1 TEMP              0 ****  ****    0 ROOT
