@<TRIPOS>MOLECULE
R0L
   35    38     1     0     0
SMALL
No Charge or Current Charge


@<TRIPOS>ATOM
      1 C18        -44.0380   -29.8000     6.0580 ca         1 R0L       0.183900
      2 C16        -46.2630   -29.4410     6.3390 ca         1 R0L       0.191500
      3 C13        -48.6220   -29.1810     3.4730 ca         1 R0L      -0.038000
      4 C12        -50.0160   -28.9600     3.5600 ca         1 R0L      -0.176000
      5 C11        -50.6450   -28.8140     4.8180 ca         1 R0L       0.169000
      6 C10        -49.9000   -28.8850     6.0110 ca         1 R0L      -0.186000
      7 C20        -45.7620   -30.9620     2.0310 c6         1 R0L       0.183800
      8 C03        -44.8560   -28.6420     0.4960 c6         1 R0L       0.006300
      9 C04        -45.3780   -28.4560     1.9470 c6         1 R0L       0.207800
     10 C06        -45.3160   -29.6710     4.1400 ca         1 R0L       0.441900
     11 C07        -46.4530   -29.4630     4.9530 cp         1 R0L      -0.241000
     12 C08        -47.8760   -29.2520     4.6690 cp         1 R0L      -0.041000
     13 C09        -48.5260   -29.1040     5.8900 ca         1 R0L      -0.007200
     14 C21        -45.2310   -31.0320     0.5700 c6         1 R0L       0.156600
     15 F14        -51.9780   -28.6040     4.8760 f          1 R0L      -0.197000
     16 N05        -45.3130   -29.7220     2.7400 nh         1 R0L      -0.729300
     17 N15        -47.5380   -29.2220     6.8720 na         1 R0L      -0.339300
     18 N17        -45.0640   -29.6080     6.9160 nb         1 R0L      -0.277000
     19 N19        -44.1030   -29.8400     4.7060 nb         1 R0L      -0.290000
     20 O22        -45.4960   -29.7980    -0.1340 os         1 R0L      -0.452000
     21 H181       -43.0530   -29.9380     6.5010 h5         1 R0L       0.035100
     22 H131       -48.1490   -29.2920     2.5040 ha         1 R0L       0.146000
     23 H121       -50.6110   -28.9020     2.6520 ha         1 R0L       0.130000
     24 H101       -50.3770   -28.7740     6.9810 ha         1 R0L       0.125000
     25 H201       -45.4050   -31.8530     2.5690 h1         1 R0L       0.069700
     26 H202       -46.8590   -31.0210     2.0110 h1         1 R0L       0.069700
     27 H031       -43.7760   -28.8390     0.5470 h1         1 R0L       0.060700
     28 H041       -44.7690   -27.6810     2.4360 h1         1 R0L       0.058200
     29 H042       -46.4070   -28.0740     1.9110 h1         1 R0L       0.058200
     30 H212       -44.1460   -31.2140     0.5760 h1         1 R0L       0.027200
     31 H211       -45.7130   -31.8630     0.0360 h1         1 R0L       0.027200
     32 H151       -47.7180   -29.1560     7.8670 hn         1 R0L       0.356000
     33 C02        -45.0240   -27.2960    -0.2840 c          1 R0L       0.708000
     34 O01        -45.9350   -27.2370    -1.1020 o          1 R0L      -0.718500
     35 O23        -43.9880   -26.6790    -0.4920 o          1 R0L      -0.718500
@<TRIPOS>BOND
     1     1    18 ar  
     2     1    19 ar  
     3     1    21 1   
     4     2    11 ar  
     5     2    17 1   
     6     2    18 ar  
     7     3     4 ar  
     8     3    12 ar  
     9     3    22 1   
    10     4     5 ar  
    11     4    23 1   
    12     5     6 ar  
    13     5    15 1   
    14     6    13 ar  
    15     6    24 1   
    16     7    14 1   
    17     7    16 1   
    18     7    25 1   
    19     7    26 1   
    20     8     9 1   
    21     8    20 1   
    22     8    27 1   
    23     8    33 1   
    24     9    16 1   
    25     9    28 1   
    26     9    29 1   
    27    10    11 ar  
    28    10    16 1   
    29    10    19 ar  
    30    11    12 1   
    31    12    13 ar  
    32    13    17 1   
    33    14    20 1   
    34    14    30 1   
    35    14    31 1   
    36    17    32 1   
    37    33    34 1   
    38    33    35 1   
@<TRIPOS>SUBSTRUCTURE
     1 R0L         1 TEMP              0 ****  ****    0 ROOT
