@<TRIPOS>MOLECULE
R0L
   35    38     1     0     0
SMALL
abcg2


@<TRIPOS>ATOM
      1 C18        -44.1100   -28.8840     5.8190 ca         1 R0L       0.183900
      2 C16        -46.2830   -29.2350     6.1030 ca         1 R0L       0.191500
      3 C13        -48.8940   -29.1570     3.5110 ca         1 R0L      -0.038000
      4 C12        -50.2600   -29.1890     3.7630 ca         1 R0L      -0.176000
      5 C11        -50.7110   -29.3230     5.0710 ca         1 R0L       0.169000
      6 C10        -49.8710   -29.4050     6.1620 ca         1 R0L      -0.186000
      7 C20        -46.3250   -30.1270     1.8380 c6         1 R0L       0.183800
      8 C03        -44.3680   -29.0320     0.3230 c6         1 R0L       0.006300
      9 C04        -44.1080   -29.0360     1.8240 c6         1 R0L       0.207800
     10 C06        -45.3780   -29.1450     3.8980 ca         1 R0L       0.441900
     11 C07        -46.5380   -29.2300     4.7120 cp         1 R0L      -0.241000
     12 C08        -47.9850   -29.2690     4.5670 cp         1 R0L      -0.041000
     13 C09        -48.5090   -29.3630     5.8880 ca         1 R0L      -0.007200
     14 C21        -45.5870   -31.0310     0.8670 c6         1 R0L       0.156600
     15 F14        -52.0530   -29.3540     5.2890 f          1 R0L      -0.197000
     16 N05        -45.3600   -29.2820     2.5490 nh         1 R0L      -0.729300
     17 N15        -47.4610   -29.3610     6.7830 na         1 R0L      -0.339300
     18 N17        -45.0940   -29.0830     6.6930 nb         1 R0L      -0.277000
     19 N19        -44.1850   -28.9090     4.4940 nb         1 R0L      -0.290000
     20 O22        -44.8720   -30.2940    -0.1240 os         1 R0L      -0.452000
     21 H181       -43.1260   -28.6940     6.2370 h5         1 R0L       0.035100
     22 H131       -48.5590   -29.0250     2.4950 ha         1 R0L       0.146000
     23 H121       -50.9770   -29.1030     2.9580 ha         1 R0L       0.130000
     24 H101       -50.2580   -29.4790     7.1690 ha         1 R0L       0.125000
     25 H201       -46.8640   -30.7440     2.5540 h1         1 R0L       0.069700
     26 H202       -47.0360   -29.5210     1.2780 h1         1 R0L       0.069700
     27 H031       -43.4020   -28.8990    -0.1700 h1         1 R0L       0.060700
     28 H041       -43.3650   -29.8010     2.0690 h1         1 R0L       0.058200
     29 H042       -43.7030   -28.0730     2.1170 h1         1 R0L       0.058200
     30 H212       -44.9000   -31.6840     1.4170 h1         1 R0L       0.027200
     31 H211       -46.3080   -31.6580     0.3400 h1         1 R0L       0.027200
     32 H151       -47.5450   -29.3460     7.7880 hn         1 R0L       0.356000
     33 C02        -45.2430   -27.8160    -0.1090 c          1 R0L       0.708000
     34 O01        -46.3290   -28.0290    -0.6910 o          1 R0L      -0.718500
     35 O23        -44.7340   -26.6980     0.1630 o          1 R0L      -0.718500
@<TRIPOS>BOND
     1     1    18 ar  
     2     1    19 ar  
     3     1    21 1   
     4     2    11 ar  
     5     2    17 1   
     6     2    18 ar  
     7     3     4 ar  
     8     3    12 ar  
     9     3    22 1   
    10     4     5 ar  
    11     4    23 1   
    12     5     6 ar  
    13     5    15 1   
    14     6    13 ar  
    15     6    24 1   
    16     7    14 1   
    17     7    16 1   
    18     7    25 1   
    19     7    26 1   
    20     8     9 1   
    21     8    20 1   
    22     8    27 1   
    23     8    33 1   
    24     9    16 1   
    25     9    28 1   
    26     9    29 1   
    27    10    11 ar  
    28    10    16 1   
    29    10    19 ar  
    30    11    12 1   
    31    12    13 ar  
    32    13    17 1   
    33    14    20 1   
    34    14    30 1   
    35    14    31 1   
    36    17    32 1   
    37    33    34 1   
    38    33    35 1   
@<TRIPOS>SUBSTRUCTURE
     1 R0L         1 TEMP              0 ****  ****    0 ROOT
