@<TRIPOS>MOLECULE
R0M
   18    17     1     0     0
SMALL
No Charge or Current Charge


@<TRIPOS>ATOM
      1 C5           0.2240     0.1580    -0.2240 ce         1 R0M      -0.256000
      2 C6           1.3340    -0.5050     0.2220 cf         1 R0M      -0.218200
      3 C2          -3.6490    -0.1760    -0.5400 c3         1 R0M      -0.027200
      4 C4          -1.1420    -0.3660    -0.1460 ce         1 R0M      -0.128000
      5 C1          -4.3040     0.0840     0.8290 c3         1 R0M      -0.083100
      6 C3          -2.2170     0.3120    -0.5940 c2         1 R0M      -0.292200
      7 C7           2.7390     0.0010     0.1570 c          1 R0M       0.694200
      8 O1           2.9520     1.1000    -0.3320 o          1 R0M      -0.727000
      9 O2           3.6180    -0.7200     0.6020 o          1 R0M      -0.727000
     10 H1           0.3490     1.1470    -0.6720 ha         1 R0M       0.186000
     11 H2           1.2120    -1.4900     0.6690 ha         1 R0M       0.139000
     12 H3          -3.6910    -1.2500    -0.7570 hc         1 R0M       0.027700
     13 H4          -4.2430     0.3210    -1.3170 hc         1 R0M       0.027700
     14 H5          -1.2670    -1.3540     0.3020 ha         1 R0M       0.147000
     15 H6          -3.7570    -0.4360     1.6240 hc         1 R0M       0.024033
     16 H7          -4.3110     1.1570     1.0570 hc         1 R0M       0.024033
     17 H8          -5.3400    -0.2750     0.8320 hc         1 R0M       0.024033
     18 H9          -2.0990     1.3010    -1.0420 ha         1 R0M       0.164000
@<TRIPOS>BOND
     1     1     2 2   
     2     1     4 1   
     3     1    10 1   
     4     2     7 1   
     5     2    11 1   
     6     3     5 1   
     7     3     6 1   
     8     3    12 1   
     9     3    13 1   
    10     4     6 2   
    11     4    14 1   
    12     5    15 1   
    13     5    16 1   
    14     5    17 1   
    15     6    18 1   
    16     7     8 1   
    17     7     9 1   
@<TRIPOS>SUBSTRUCTURE
     1 R0M         1 TEMP              0 ****  ****    0 ROOT
