@<TRIPOS>MOLECULE
R0M
   18    17     1     0     0
SMALL
bcc


@<TRIPOS>ATOM
      1 C5           0.2550     0.1190    -0.1370 ce         1 R0M      -0.206000
      2 C6           1.3820    -0.5760     0.0530 cf         1 R0M      -0.168200
      3 C2          -3.5720    -0.3150    -0.3890 c3         1 R0M      -0.027200
      4 C4          -1.0730    -0.4640    -0.1680 ce         1 R0M      -0.078000
      5 C1          -4.4590     0.2840     0.7020 c3         1 R0M      -0.083100
      6 C3          -2.1890     0.2460    -0.3610 c2         1 R0M      -0.242200
      7 C7           2.7550     0.0460     0.0850 c          1 R0M       0.904800
      8 O1           2.8420     1.2770    -0.1050 o          1 R0M      -0.832300
      9 O2           3.7010    -0.7400     0.3050 o          1 R0M      -0.832300
     10 H1           0.3220     1.1950    -0.2780 ha         1 R0M       0.136000
     11 H2           1.3230    -1.6520     0.1960 ha         1 R0M       0.089000
     12 H3          -3.5380    -1.4030    -0.2890 hc         1 R0M       0.027700
     13 H4          -4.0250    -0.1050    -1.3640 hc         1 R0M       0.027700
     14 H5          -1.1470    -1.5400    -0.0280 ha         1 R0M       0.097000
     15 H6          -4.0800     0.0400     1.6940 hc         1 R0M       0.024033
     16 H7          -4.5050     1.3710     0.6200 hc         1 R0M       0.024033
     17 H8          -5.4780    -0.0970     0.6290 hc         1 R0M       0.024033
     18 H9          -2.1060     1.3230    -0.4970 ha         1 R0M       0.114000
@<TRIPOS>BOND
     1     1     2 2   
     2     1     4 1   
     3     1    10 1   
     4     2     7 1   
     5     2    11 1   
     6     3     5 1   
     7     3     6 1   
     8     3    12 1   
     9     3    13 1   
    10     4     6 2   
    11     4    14 1   
    12     5    15 1   
    13     5    16 1   
    14     5    17 1   
    15     6    18 1   
    16     7     8 1   
    17     7     9 1   
@<TRIPOS>SUBSTRUCTURE
     1 R0M         1 TEMP              0 ****  ****    0 ROOT
