@<TRIPOS>MOLECULE
R0N
   52    54     1     0     0
SMALL
No Charge or Current Charge


@<TRIPOS>ATOM
      1 C5          -3.4090     1.4600    -0.1220 ca         1 R0N      -0.405300
      2 C6          -3.3400     0.0610    -0.0260 ca         1 R0N       0.455300
      3 C8          -1.0620     0.1610    -0.2930 ca         1 R0N       0.318500
      4 C10         -2.1990     2.1480    -0.3230 ca         1 R0N       0.223900
      5 C13          2.3590    -1.1740    -0.9980 cc         1 R0N      -0.312100
      6 C15          4.2030     0.2870    -0.4220 cd         1 R0N      -0.401000
      7 C17          1.9590     0.9600     0.1970 cc         1 R0N      -0.312100
      8 C21          6.8930     0.1050     1.0370 cx         1 R0N      -0.152700
      9 C22          8.3940    -0.1040     1.0330 cx         1 R0N      -0.097900
     10 C26         -5.8840    -2.5380     0.7900 c3         1 R0N       0.173300
     11 C28         -5.7730    -2.4450     2.3250 c3         1 R0N      -0.130100
     12 C23          7.4630    -1.2940     1.1390 cx         1 R0N      -0.097900
     13 S18          5.9800     0.6530    -0.4790 s6         1 R0N       0.941700
     14 N19          6.8220     0.0170    -1.7750 n8         1 R0N      -0.959000
     15 O20          6.3610     2.2260    -0.5400 oh         1 R0N      -0.775700
     16 C16          3.3090     1.2420     0.1840 cd         1 R0N      -0.077000
     17 C14          3.7160    -0.9250    -1.0310 cd         1 R0N      -0.077000
     18 C12          1.4610    -0.2410    -0.3990 cc         1 R0N       0.347900
     19 N11          0.1210    -0.5640    -0.3900 nu         1 R0N      -0.462200
     20 N7          -2.1600    -0.5850    -0.1070 nb         1 R0N      -0.349000
     21 N9          -1.0250     1.4990    -0.4120 nb         1 R0N      -0.258000
     22 C2          -4.7370     2.2000    -0.0170 c3         1 R0N       0.392300
     23 F3          -5.6080     1.8010    -0.9710 f          1 R0N      -0.113333
     24 F4          -5.3310     1.9930     1.1800 f          1 R0N      -0.113333
     25 F1          -4.6000     3.5380    -0.1540 f          1 R0N      -0.113333
     26 O24         -4.5060    -0.6410     0.1870 os         1 R0N      -0.460300
     27 C25         -4.5790    -2.0820     0.0680 c3         1 R0N       0.153300
     28 C29         -4.5740    -2.4330    -1.4390 c3         1 R0N      -0.110100
     29 H1          -2.1550     3.2320    -0.4140 h4         1 R0N       0.043100
     30 H2           1.9580    -2.0800    -1.4420 ha         1 R0N       0.202000
     31 H3           1.2700     1.6450     0.6760 ha         1 R0N       0.202000
     32 H4           6.4170     0.5450     1.9120 h1         1 R0N       0.144700
     33 H5           8.9400     0.0310     0.1020 hc         1 R0N       0.078950
     34 H6           8.9470     0.1850     1.9250 hc         1 R0N       0.078950
     35 H7          -6.0820    -3.5870     0.5270 h1         1 R0N       0.076700
     36 H8          -6.7020    -2.7830     2.8000 hc         1 R0N       0.049033
     37 H9          -4.9560    -3.0800     2.6900 hc         1 R0N       0.049033
     38 H10         -5.5760    -1.4150     2.6460 hc         1 R0N       0.049033
     39 H11          7.3950    -1.7990     2.1000 hc         1 R0N       0.078950
     40 H12          7.3790    -1.9520     0.2770 hc         1 R0N       0.078950
     41 H13          7.2240     0.7990    -2.2890 hn         1 R0N       0.240500
     42 H14          7.5950    -0.5320    -1.4030 hn         1 R0N       0.240500
     43 H15          7.2560     2.2540    -0.1540 ho         1 R0N       0.389000
     44 H16          3.6860     2.1630     0.6310 ha         1 R0N       0.191000
     45 H17          4.3980    -1.6330    -1.5030 ha         1 R0N       0.191000
     46 H18         -0.0390    -1.5550    -0.5220 hn         1 R0N       0.353000
     47 H19         -3.7270    -2.5720     0.5580 h1         1 R0N       0.070700
     48 H20         -5.3800    -1.9090    -1.9680 hc         1 R0N       0.054033
     49 H21         -3.6210    -2.1570    -1.9050 hc         1 R0N       0.054033
     50 H22         -4.7160    -3.5110    -1.5810 hc         1 R0N       0.054033
     51 H23         -6.5530    -0.8310     0.2020 ho         1 R0N       0.455000
     52 O27         -6.9730    -1.7050     0.3720 oh         1 R0N      -0.651000
@<TRIPOS>BOND
     1     1     2 ar  
     2     1     4 ar  
     3     1    22 1   
     4     2    20 ar  
     5     2    26 1   
     6     3    19 1   
     7     3    20 ar  
     8     3    21 ar  
     9     4    21 ar  
    10     4    29 1   
    11     5    17 2   
    12     5    18 1   
    13     5    30 1   
    14     6    13 2   
    15     6    16 1   
    16     6    17 1   
    17     7    16 2   
    18     7    18 1   
    19     7    31 1   
    20     8     9 1   
    21     8    12 1   
    22     8    13 1   
    23     8    32 1   
    24     9    12 1   
    25     9    33 1   
    26     9    34 1   
    27    10    11 1   
    28    10    27 1   
    29    10    35 1   
    30    10    52 1   
    31    11    36 1   
    32    11    37 1   
    33    11    38 1   
    34    12    39 1   
    35    12    40 1   
    36    13    14 2   
    37    13    15 1   
    38    14    41 1   
    39    14    42 1   
    40    15    43 1   
    41    16    44 1   
    42    17    45 1   
    43    18    19 2   
    44    19    46 1   
    45    22    23 1   
    46    22    24 1   
    47    22    25 1   
    48    26    27 1   
    49    27    28 1   
    50    27    47 1   
    51    28    48 1   
    52    28    49 1   
    53    28    50 1   
    54    51    52 1   
@<TRIPOS>SUBSTRUCTURE
     1 R0N         1 TEMP              0 ****  ****    0 ROOT
