@<TRIPOS>MOLECULE
R0N
   52    54     1     0     0
SMALL
abcg2


@<TRIPOS>ATOM
      1 C5          -3.3490     1.4230    -0.1990 ca         1 R0N      -0.405300
      2 C6          -3.2220     0.0210    -0.0960 ca         1 R0N       0.455300
      3 C8          -0.9690     0.2230     0.0030 ca         1 R0N       0.318500
      4 C10         -2.1630     2.1240    -0.1840 ca         1 R0N       0.223900
      5 C13          2.4970    -1.0320     0.1120 cc         1 R0N      -0.312100
      6 C15          4.2390     0.6090     0.0350 cd         1 R0N      -0.401000
      7 C17          1.9350     1.3050     0.0430 cc         1 R0N      -0.312100
      8 C21          6.9100    -0.3120     0.5940 cx         1 R0N      -0.152700
      9 C22          8.3410    -0.4300     0.1710 cx         1 R0N      -0.097900
     10 C26         -5.6240    -2.5270     0.6490 c3         1 R0N       0.173300
     11 C28         -5.8400    -1.9040     2.0210 c3         1 R0N      -0.130100
     12 C23          7.3660    -1.5050    -0.1810 cx         1 R0N      -0.097900
     13 S18          5.9540     1.0700    -0.0790 s6         1 R0N       0.941700
     14 N19          5.9680     0.5950    -1.8060 n8         1 R0N      -0.959000
     15 O20          5.7220     1.6290     1.7610 oh         1 R0N      -0.775700
     16 C16          3.2860     1.6130     0.0300 cd         1 R0N      -0.077000
     17 C14          3.8440    -0.7180     0.0810 cd         1 R0N      -0.077000
     18 C12          1.5230    -0.0290     0.0830 cc         1 R0N       0.347900
     19 N11          0.1990    -0.4570     0.0970 nu         1 R0N      -0.462200
     20 N7          -2.0550    -0.5590     0.0050 nb         1 R0N      -0.349000
     21 N9          -0.9720     1.5470    -0.0860 nb         1 R0N      -0.258000
     22 C2          -4.6770     2.0830    -0.3000 c3         1 R0N       0.392300
     23 F3          -5.3810     1.6590    -1.3590 f          1 R0N      -0.113333
     24 F4          -5.4420     1.8610     0.7790 f          1 R0N      -0.113333
     25 F1          -4.5580     3.4100    -0.4220 f          1 R0N      -0.113333
     26 O24         -4.3260    -0.6900    -0.1010 os         1 R0N      -0.460300
     27 C25         -4.2840    -2.1270     0.0340 c3         1 R0N       0.153300
     28 C29         -4.0210    -2.7710    -1.3110 c3         1 R0N      -0.110100
     29 H1          -2.1550     3.2050    -0.2540 h4         1 R0N       0.043100
     30 H2           2.1990    -2.0730     0.1530 ha         1 R0N       0.202000
     31 H3           1.2100     2.1010     0.0280 ha         1 R0N       0.202000
     32 H4           6.6840    -0.4560     1.6390 h1         1 R0N       0.144700
     33 H5           8.6830     0.2020    -0.6400 hc         1 R0N       0.078950
     34 H6           9.0780    -0.6010     0.9440 hc         1 R0N       0.078950
     35 H7          -5.5780    -3.6140     0.7660 h1         1 R0N       0.076700
     36 H8          -6.7420    -2.3060     2.4830 hc         1 R0N       0.049033
     37 H9          -5.0010    -2.1210     2.6840 hc         1 R0N       0.049033
     38 H10         -5.9460    -0.8200     1.9620 hc         1 R0N       0.049033
     39 H11          7.3910    -2.4340     0.3740 hc         1 R0N       0.078950
     40 H12          7.1000    -1.6210    -1.2220 hc         1 R0N       0.078950
     41 H13          6.8600     0.8370    -2.2250 hn         1 R0N       0.240500
     42 H14          5.7540    -0.3700    -2.0350 hn         1 R0N       0.240500
     43 H15          6.4740     2.2140     1.9050 ho         1 R0N       0.389000
     44 H16          3.5840     2.6520     0.0030 ha         1 R0N       0.191000
     45 H17          4.5700    -1.5200     0.0960 ha         1 R0N       0.191000
     46 H18          0.0720    -1.4570     0.1460 hn         1 R0N       0.353000
     47 H19         -3.4930    -2.3960     0.7390 h1         1 R0N       0.070700
     48 H20         -4.7800    -2.4950    -2.0410 hc         1 R0N       0.054033
     49 H21         -3.0430    -2.4920    -1.7020 hc         1 R0N       0.054033
     50 H22         -4.0350    -3.8560    -1.2020 hc         1 R0N       0.054033
     51 H23         -6.8430    -1.3300    -0.2800 ho         1 R0N       0.455000
     52 O27         -6.7080    -2.2820    -0.2190 oh         1 R0N      -0.651000
@<TRIPOS>BOND
     1     1     2 ar  
     2     1     4 ar  
     3     1    22 1   
     4     2    20 ar  
     5     2    26 1   
     6     3    19 1   
     7     3    20 ar  
     8     3    21 ar  
     9     4    21 ar  
    10     4    29 1   
    11     5    17 2   
    12     5    18 1   
    13     5    30 1   
    14     6    13 2   
    15     6    16 1   
    16     6    17 1   
    17     7    16 2   
    18     7    18 1   
    19     7    31 1   
    20     8     9 1   
    21     8    12 1   
    22     8    13 1   
    23     8    32 1   
    24     9    12 1   
    25     9    33 1   
    26     9    34 1   
    27    10    11 1   
    28    10    27 1   
    29    10    35 1   
    30    10    52 1   
    31    11    36 1   
    32    11    37 1   
    33    11    38 1   
    34    12    39 1   
    35    12    40 1   
    36    13    14 2   
    37    13    15 1   
    38    14    41 1   
    39    14    42 1   
    40    15    43 1   
    41    16    44 1   
    42    17    45 1   
    43    18    19 2   
    44    19    46 1   
    45    22    23 1   
    46    22    24 1   
    47    22    25 1   
    48    26    27 1   
    49    27    28 1   
    50    27    47 1   
    51    28    48 1   
    52    28    49 1   
    53    28    50 1   
    54    51    52 1   
@<TRIPOS>SUBSTRUCTURE
     1 R0N         1 TEMP              0 ****  ****    0 ROOT
