@<TRIPOS>MOLECULE
R0O
   77    82     1     0     0
SMALL
No Charge or Current Charge


@<TRIPOS>ATOM
      1 N1         -80.3330   -20.5730    82.1330 nc         1 R0O      -0.515100
      2 N3         -87.5410   -18.7400    89.2740 ns         1 R0O      -0.143000
      3 C4         -82.2320   -20.2190    85.2250 ca         1 R0O       0.463900
      4 C5         -84.5530   -20.9550    86.0370 ca         1 R0O       0.292000
      5 C6         -84.9310   -19.8350    86.8060 ca         1 R0O      -0.057000
      6 C7         -86.0610   -19.8650    87.6550 ca         1 R0O      -0.138600
      7 C8         -86.4150   -18.6300    88.4660 c          1 R0O       0.619700
      8 C10        -89.2570   -18.3210    90.9170 ca         1 R0O      -0.143000
      9 C15        -88.9130   -16.3490    96.3500 c6         1 R0O       0.163300
     10 C17        -91.2410   -15.6760    96.7030 c6         1 R0O       0.163300
     11 C21        -87.8390   -16.4650    90.2740 ca         1 R0O      -0.094000
     12 C22        -86.8250   -21.0550    87.7110 ca         1 R0O      -0.100000
     13 C24        -85.3390   -22.1300    86.0940 ca         1 R0O      -0.092300
     14 C26        -80.6920   -18.9130    86.3520 cp         1 R0O       0.274500
     15 C28        -79.0850   -17.4680    87.7190 ca         1 R0O      -0.029000
     16 N          -79.5580   -19.7870    82.9910 na         1 R0O      -0.032100
     17 C          -78.2390   -19.2420    82.6330 c3         1 R0O       0.087900
     18 O          -85.7300   -17.6150    88.4000 o          1 R0O      -0.569100
     19 C1         -81.4350   -20.8460    82.8470 cd         1 R0O       0.388800
     20 C11        -89.9490   -17.4820    91.7990 ca         1 R0O      -0.072000
     21 C12        -89.6000   -16.1250    91.9390 ca         1 R0O      -0.058300
     22 C14        -88.9680   -15.7780    94.8970 c6         1 R0O       0.162300
     23 C16        -89.7990   -16.1670    98.6550 c3         1 R0O       0.153100
     24 C18        -91.2970   -15.1050    95.2490 c6         1 R0O       0.162300
     25 C19        -88.5270   -15.5980    91.1620 ca         1 R0O      -0.157300
     26 C2         -80.1740   -19.5780    84.2140 ca         1 R0O       0.166500
     27 C23        -86.4670   -22.1680    86.9350 ca         1 R0O      -0.098000
     28 C25        -84.9860   -23.3690    85.2710 c3         1 R0O      -0.053800
     29 C27        -80.3180   -18.1630    87.5980 cp         1 R0O      -0.209500
     30 C29        -78.7960   -16.7880    88.9110 ca         1 R0O      -0.182000
     31 C3         -81.3590   -20.2390    84.1490 ca         1 R0O      -0.389900
     32 C30        -79.7290   -16.8090    89.9570 ca         1 R0O       0.352900
     33 C31        -81.1890   -18.1170    88.7210 ca         1 R0O       0.384900
     34 C9         -88.1940   -17.8260    90.1490 ca         1 R0O      -0.022000
     35 F          -87.7220   -13.7810    92.5120 f          1 R0O      -0.113667
     36 F1         -87.0620   -13.8040    90.4540 f          1 R0O      -0.113667
     37 F2         -89.1110   -13.2840    90.9080 f          1 R0O      -0.113667
     38 N2         -83.4320   -20.9100    85.1920 nu         1 R0O      -0.938900
     39 N4         -90.3520   -15.8060    94.3260 n3         1 R0O      -0.728600
     40 N5         -89.8590   -15.6490    97.2720 n3         1 R0O      -0.720600
     41 N6         -81.8860   -19.5560    86.3410 nb         1 R0O      -0.295000
     42 N7         -80.9080   -17.4610    89.8710 nb         1 R0O      -0.673000
     43 N8         -79.8140   -18.8990    85.3180 nb         1 R0O      -0.224000
     44 H6         -87.9880   -19.6450    89.2330 hn         1 R0O       0.154000
     45 H5         -84.3500   -18.9230    86.7270 ha         1 R0O       0.162000
     46 H7         -89.5510   -19.3650    90.8350 ha         1 R0O       0.114000
     47 H10        -90.1270   -14.2390    92.9200 h1         1 R0O       0.051200
     48 H9         -91.4680   -15.3180    92.5940 h1         1 R0O       0.051200
     49 H13        -89.1480   -17.4230    96.3110 h1         1 R0O       0.037700
     50 H14        -87.8820   -16.2600    96.7230 h1         1 R0O       0.037700
     51 H18        -91.9240   -15.0910    97.3360 h1         1 R0O       0.037700
     52 H19        -91.6230   -16.7080    96.6870 h1         1 R0O       0.037700
     53 H22        -87.0280   -16.0670    89.6740 ha         1 R0O       0.169000
     54 H23        -87.7040   -21.1360    88.3460 ha         1 R0O       0.116000
     55 H28        -78.3600   -17.4520    86.9070 ha         1 R0O       0.138000
     56 H1         -77.9700   -19.5490    81.6160 h1         1 R0O       0.060367
     57 H          -78.2690   -18.1470    82.6840 h1         1 R0O       0.060367
     58 H2         -77.4840   -19.6160    83.3360 h1         1 R0O       0.060367
     59 H3         -82.2160   -21.4510    82.4020 h4         1 R0O       0.047800
     60 H8         -90.7670   -17.8890    92.3900 ha         1 R0O       0.138000
     61 H12        -88.2790   -16.3610    94.2690 h1         1 R0O       0.043450
     62 H11        -88.5880   -14.7450    94.9150 h1         1 R0O       0.043450
     63 H15        -90.4680   -15.5970    99.3120 h1         1 R0O       0.031033
     64 H16        -90.0980   -17.2240    98.6920 h1         1 R0O       0.031033
     65 H17        -88.7790   -16.0850    99.0560 h1         1 R0O       0.031033
     66 H21        -91.0610   -14.0310    95.2870 h1         1 R0O       0.043450
     67 H20        -92.3280   -15.1940    94.8780 h1         1 R0O       0.043450
     68 H24        -87.0740   -23.0690    86.9920 ha         1 R0O       0.118000
     69 H25        -83.9620   -23.7040    85.4770 hc         1 R0O       0.047367
     70 H26        -85.6510   -24.2110    85.4960 hc         1 R0O       0.047367
     71 H27        -85.0690   -23.1670    84.1960 hc         1 R0O       0.047367
     72 H29        -77.8610   -16.2480    89.0290 ha         1 R0O       0.125000
     73 H30        -79.5270   -16.2880    90.8920 h4         1 R0O       0.020100
     74 H31        -82.1530   -18.6250    88.7040 h4         1 R0O       0.040100
     75 H4         -83.4530   -21.6150    84.4600 hn         1 R0O       0.506000
     76 C13        -90.4240   -15.2940    92.9360 c3         1 R0O       0.208100
     77 C20        -88.1040   -14.1160    91.2590 c3         1 R0O       0.340300
@<TRIPOS>BOND
     1     1    16 1   
     2     1    19 2   
     3     2     7 1   
     4     2    34 1   
     5     2    44 1   
     6     3    31 ar  
     7     3    38 1   
     8     3    41 ar  
     9     4     5 ar  
    10     4    13 ar  
    11     4    38 1   
    12     5     6 ar  
    13     5    45 1   
    14     6     7 1   
    15     6    12 ar  
    16     7    18 2   
    17     8    20 ar  
    18     8    34 ar  
    19     8    46 1   
    20     9    22 1   
    21     9    40 1   
    22     9    49 1   
    23     9    50 1   
    24    10    24 1   
    25    10    40 1   
    26    10    51 1   
    27    10    52 1   
    28    11    25 ar  
    29    11    34 ar  
    30    11    53 1   
    31    12    27 ar  
    32    12    54 1   
    33    13    27 ar  
    34    13    28 1   
    35    14    29 1   
    36    14    41 ar  
    37    14    43 ar  
    38    15    29 ar  
    39    15    30 ar  
    40    15    55 1   
    41    16    17 1   
    42    16    26 1   
    43    17    56 1   
    44    17    57 1   
    45    17    58 1   
    46    19    31 1   
    47    19    59 1   
    48    20    21 ar  
    49    20    60 1   
    50    21    25 ar  
    51    21    76 1   
    52    22    39 1   
    53    22    61 1   
    54    22    62 1   
    55    23    40 1   
    56    23    63 1   
    57    23    64 1   
    58    23    65 1   
    59    24    39 1   
    60    24    66 1   
    61    24    67 1   
    62    25    77 1   
    63    26    31 ar  
    64    26    43 ar  
    65    27    68 1   
    66    28    69 1   
    67    28    70 1   
    68    28    71 1   
    69    29    33 ar  
    70    30    32 ar  
    71    30    72 1   
    72    32    42 ar  
    73    32    73 1   
    74    33    42 ar  
    75    33    74 1   
    76    35    77 1   
    77    36    77 1   
    78    37    77 1   
    79    38    75 1   
    80    39    76 1   
    81    47    76 1   
    82    48    76 1   
@<TRIPOS>SUBSTRUCTURE
     1 R0O         1 TEMP              0 ****  ****    0 ROOT
