@<TRIPOS>MOLECULE
R0O
   77    82     1     0     0
SMALL
abcg2


@<TRIPOS>ATOM
      1 N1         -79.7510   -20.4470    82.8490 nc         1 R0O      -0.515100
      2 N3         -87.5750   -18.9020    89.0770 ns         1 R0O      -0.143000
      3 C4         -82.4820   -20.2140    85.2740 ca         1 R0O       0.463900
      4 C5         -84.8210   -20.9320    85.7220 ca         1 R0O       0.292000
      5 C6         -85.2710   -19.8290    86.4390 ca         1 R0O      -0.057000
      6 C7         -86.4380   -19.9010    87.1950 ca         1 R0O      -0.138600
      7 C8         -86.8260   -18.6740    87.9580 c          1 R0O       0.619700
      8 C10        -88.7240   -18.4700    91.1350 ca         1 R0O      -0.143000
      9 C15        -88.1480   -16.2850    96.1570 c6         1 R0O       0.163300
     10 C17        -90.4370   -15.7750    96.6360 c6         1 R0O       0.163300
     11 C21        -88.0440   -16.5950    89.7980 ca         1 R0O      -0.094000
     12 C22        -87.1900   -21.0760    87.1870 ca         1 R0O      -0.100000
     13 C24        -85.5780   -22.1180    85.6960 ca         1 R0O      -0.092300
     14 C26        -81.2520   -18.8570    86.7000 cp         1 R0O       0.274500
     15 C28        -80.1240   -17.4090    88.4140 ca         1 R0O      -0.029000
     16 N          -79.2980   -19.6670    83.8710 na         1 R0O      -0.032100
     17 C          -77.9560   -19.1200    83.8690 c3         1 R0O       0.087900
     18 O          -86.4660   -17.5560    87.6010 o          1 R0O      -0.569100
     19 C1         -80.9900   -20.7970    83.1500 cd         1 R0O       0.388800
     20 C11        -89.2650   -17.6060    92.0670 ca         1 R0O      -0.072000
     21 C12        -89.2170   -16.2200    91.9070 ca         1 R0O      -0.058300
     22 C14        -88.3100   -15.7020    94.7650 c6         1 R0O       0.162300
     23 C16        -88.8940   -16.1620    98.4450 c3         1 R0O       0.153100
     24 C18        -90.5990   -15.1900    95.2440 c6         1 R0O       0.162300
     25 C19        -88.5970   -15.7390    90.7480 ca         1 R0O      -0.157300
     26 C2         -80.2450   -19.5220    84.8260 ca         1 R0O       0.166500
     27 C23        -86.7630   -22.1550    86.4270 ca         1 R0O      -0.098000
     28 C25        -85.1220   -23.3130    84.9090 c3         1 R0O      -0.053800
     29 C27        -81.2550   -18.0950    87.9710 cp         1 R0O      -0.209500
     30 C29        -80.1880   -16.6990    89.6030 ca         1 R0O      -0.182000
     31 C3         -81.3720   -20.2460    84.3970 ca         1 R0O      -0.389900
     32 C30        -81.3820   -16.6940    90.3150 ca         1 R0O       0.352900
     33 C31        -82.4060   -18.0270    88.7640 ca         1 R0O       0.384900
     34 C9         -88.1020   -17.9740    89.9850 ca         1 R0O      -0.022000
     35 F          -87.7190   -13.6300    91.4070 f          1 R0O      -0.113667
     36 F1         -87.9520   -13.9730    89.2860 f          1 R0O      -0.113667
     37 F2         -89.6990   -13.6400    90.5120 f          1 R0O      -0.113667
     38 N2         -83.6250   -20.8870    84.9790 nu         1 R0O      -0.938900
     39 N4         -89.6900   -15.8430    94.3070 n3         1 R0O      -0.728600
     40 N5         -89.0590   -15.6410    97.0980 n3         1 R0O      -0.720600
     41 N6         -82.3850   -19.5250    86.4090 nb         1 R0O      -0.295000
     42 N7         -82.4760   -17.3460    89.9080 nb         1 R0O      -0.673000
     43 N8         -80.1450   -18.8170    85.9610 nb         1 R0O      -0.224000
     44 H6         -87.7160   -19.8670    89.3310 hn         1 R0O       0.154000
     45 H5         -84.7090   -18.9110    86.4300 ha         1 R0O       0.162000
     46 H7         -88.7790   -19.5400    91.2930 ha         1 R0O       0.114000
     47 H10        -89.4950   -14.3060    92.8780 h1         1 R0O       0.051200
     48 H9         -90.9390   -15.2910    92.7490 h1         1 R0O       0.051200
     49 H13        -88.3290   -17.3750    96.1150 h1         1 R0O       0.037700
     50 H14        -87.1230   -16.1340    96.5010 h1         1 R0O       0.037700
     51 H18        -91.0940   -15.2490    97.3320 h1         1 R0O       0.037700
     52 H19        -90.7460   -16.8350    96.6190 h1         1 R0O       0.037700
     53 H22        -87.5660   -16.1990    88.9210 ha         1 R0O       0.169000
     54 H23        -88.1200   -21.1520    87.7350 ha         1 R0O       0.116000
     55 H28        -79.2150   -17.4370    87.8310 ha         1 R0O       0.138000
     56 H1         -77.5000   -19.3650    82.9140 h1         1 R0O       0.060367
     57 H          -77.9940   -18.0380    83.9910 h1         1 R0O       0.060367
     58 H2         -77.3670   -19.5520    84.6790 h1         1 R0O       0.060367
     59 H3         -81.5550   -21.4210    82.4750 h4         1 R0O       0.047800
     60 H8         -89.7310   -18.0030    92.9590 ha         1 R0O       0.138000
     61 H12        -87.6480   -16.2240    94.0720 h1         1 R0O       0.043450
     62 H11        -88.0110   -14.6390    94.7770 h1         1 R0O       0.043450
     63 H15        -89.5600   -15.6330    99.1290 h1         1 R0O       0.031033
     64 H16        -89.1210   -17.2400    98.5100 h1         1 R0O       0.031033
     65 H17        -87.8650   -16.0120    98.7750 h1         1 R0O       0.031033
     66 H21        -90.4130   -14.1020    95.2850 h1         1 R0O       0.043450
     67 H20        -91.6240   -15.3390    94.9010 h1         1 R0O       0.043450
     68 H24        -87.3590   -23.0590    86.4050 ha         1 R0O       0.118000
     69 H25        -84.1210   -23.6280    85.2150 hc         1 R0O       0.047367
     70 H26        -85.8050   -24.1490    85.0510 hc         1 R0O       0.047367
     71 H27        -85.0770   -23.0970    83.8370 hc         1 R0O       0.047367
     72 H29        -79.3300   -16.1550    89.9750 ha         1 R0O       0.125000
     73 H30        -81.4630   -16.1470    91.2480 h4         1 R0O       0.020100
     74 H31        -83.3010   -18.5480    88.4500 h4         1 R0O       0.040100
     75 H4         -83.5800   -21.4880    84.1700 hn         1 R0O       0.506000
     76 C13        -89.8650   -15.3350    92.9530 c3         1 R0O       0.208100
     77 C20        -88.4930   -14.2600    90.4860 c3         1 R0O       0.340300
@<TRIPOS>BOND
     1     1    16 1   
     2     1    19 2   
     3     2     7 1   
     4     2    34 1   
     5     2    44 1   
     6     3    31 ar  
     7     3    38 1   
     8     3    41 ar  
     9     4     5 ar  
    10     4    13 ar  
    11     4    38 1   
    12     5     6 ar  
    13     5    45 1   
    14     6     7 1   
    15     6    12 ar  
    16     7    18 2   
    17     8    20 ar  
    18     8    34 ar  
    19     8    46 1   
    20     9    22 1   
    21     9    40 1   
    22     9    49 1   
    23     9    50 1   
    24    10    24 1   
    25    10    40 1   
    26    10    51 1   
    27    10    52 1   
    28    11    25 ar  
    29    11    34 ar  
    30    11    53 1   
    31    12    27 ar  
    32    12    54 1   
    33    13    27 ar  
    34    13    28 1   
    35    14    29 1   
    36    14    41 ar  
    37    14    43 ar  
    38    15    29 ar  
    39    15    30 ar  
    40    15    55 1   
    41    16    17 1   
    42    16    26 1   
    43    17    56 1   
    44    17    57 1   
    45    17    58 1   
    46    19    31 1   
    47    19    59 1   
    48    20    21 ar  
    49    20    60 1   
    50    21    25 ar  
    51    21    76 1   
    52    22    39 1   
    53    22    61 1   
    54    22    62 1   
    55    23    40 1   
    56    23    63 1   
    57    23    64 1   
    58    23    65 1   
    59    24    39 1   
    60    24    66 1   
    61    24    67 1   
    62    25    77 1   
    63    26    31 ar  
    64    26    43 ar  
    65    27    68 1   
    66    28    69 1   
    67    28    70 1   
    68    28    71 1   
    69    29    33 ar  
    70    30    32 ar  
    71    30    72 1   
    72    32    42 ar  
    73    32    73 1   
    74    33    42 ar  
    75    33    74 1   
    76    35    77 1   
    77    36    77 1   
    78    37    77 1   
    79    38    75 1   
    80    39    76 1   
    81    47    76 1   
    82    48    76 1   
@<TRIPOS>SUBSTRUCTURE
     1 R0O         1 TEMP              0 ****  ****    0 ROOT
