@<TRIPOS>MOLECULE
R0P
   53    57     1     0     0
SMALL
abcg2


@<TRIPOS>ATOM
      1 C10         19.5270    19.7490    18.5400 c3         1 R0P       0.179200
      2 C15         18.5040    15.0520    17.4720 cx         1 R0P       0.054700
      3 C17         18.9150    14.8200    16.0550 cx         1 R0P      -0.125900
      4 C20         20.6580    15.5990    21.3930 ca         1 R0P       0.335900
      5 C22         20.5760    17.8310    20.8640 ca         1 R0P       0.350900
      6 C24         19.4690    21.3190    20.5580 cc         1 R0P      -0.198200
      7 C26         18.3790    22.6980    22.4880 ca         1 R0P       0.396900
      8 C28         16.1040    22.4650    22.6250 ca         1 R0P       0.347900
      9 C01         14.0080    15.0580    18.5870 c3         1 R0P      -0.337100
     10 C05         15.3100    17.5180    18.9790 c3         1 R0P      -0.302400
     11 C06         16.1960    18.3830    19.8610 c3         1 R0P      -0.075400
     12 C09         18.8690    20.4980    19.6500 cd         1 R0P      -0.098300
     13 C12         18.8320    17.4990    17.7100 c          1 R0P       0.591000
     14 C16         19.4700    13.9560    17.1380 cx         1 R0P      -0.125900
     15 C18         19.6300    16.2060    19.3710 ca         1 R0P       0.049600
     16 C19         19.9970    15.1960    20.2370 ca         1 R0P      -0.146000
     17 C23         19.9150    17.5360    19.6890 ca         1 R0P      -0.066400
     18 C25         18.4360    21.8300    21.3980 ca         1 R0P      -0.162800
     19 C29         16.0220    21.5900    21.5610 ca         1 R0P      -0.179000
     20 C30         17.2270    21.2730    20.9370 ca         1 R0P      -0.014200
     21 N08         17.5040    20.4730    19.8720 na         1 R0P      -0.075700
     22 N11         19.4130    18.3110    18.6620 n          1 R0P      -0.295000
     23 N14         18.9940    16.2020    18.1570 n          1 R0P      -0.258000
     24 N21         20.9430    16.8600    21.6990 nb         1 R0P      -0.666000
     25 N27         17.2430    23.0090    23.0830 nb         1 R0P      -0.689000
     26 O03         16.2410    15.2520    19.9810 o          1 R0P      -0.516000
     27 O04         14.1450    16.2070    20.9640 o          1 R0P      -0.516000
     28 S02         14.9710    15.9540    19.7830 s6         1 R0P       1.083000
     29 H1          20.5810    20.0300    18.5170 h1         1 R0P       0.078200
     30 H2          19.1070    20.0270    17.5720 h1         1 R0P       0.078200
     31 H3          17.5030    14.7580    17.7630 h1         1 R0P       0.095700
     32 H4          19.5810    15.5370    15.5950 hc         1 R0P       0.083700
     33 H5          18.1670    14.4110    15.3890 hc         1 R0P       0.083700
     34 H6          20.9730    14.8490    22.1090 h4         1 R0P       0.023100
     35 H7          20.8170    18.8480    21.1470 h4         1 R0P       0.032100
     36 H8          20.5260    21.5280    20.6140 ha         1 R0P       0.209000
     37 H9          19.2840    23.1520    22.8800 h4         1 R0P       0.021100
     38 H10         15.1990    22.7480    23.1500 h4         1 R0P       0.017100
     39 H11         13.0940    15.6050    18.3710 h1         1 R0P       0.104367
     40 H12         14.5900    14.9210    17.6790 h1         1 R0P       0.104367
     41 H13         13.7690    14.0910    19.0260 h1         1 R0P       0.104367
     42 H14         15.7870    17.2930    18.0230 h1         1 R0P       0.099700
     43 H15         14.3470    17.9910    18.7790 h1         1 R0P       0.099700
     44 H16         17.1210    17.8560    20.0990 hc         1 R0P       0.075700
     45 H17         15.6960    18.5910    20.8090 hc         1 R0P       0.075700
     46 H18         16.8850    19.5160    18.1430 h1         1 R0P       0.068700
     47 H19         15.6170    20.3020    19.0450 h1         1 R0P       0.068700
     48 H20         19.1140    12.9390    17.2380 hc         1 R0P       0.083700
     49 H21         20.5090    14.0990    17.4090 hc         1 R0P       0.083700
     50 H22         19.7890    14.1540    20.0440 ha         1 R0P       0.139000
     51 H23         15.0680    21.1880    21.2480 ha         1 R0P       0.124000
     52 O13         18.2750    17.8540    16.6910 o          1 R0P      -0.573000
     53 C07         16.5200    19.6980    19.1530 c3         1 R0P       0.077600
@<TRIPOS>BOND
     1     1    12 1   
     2     1    22 1   
     3     1    29 1   
     4     1    30 1   
     5     2     3 1   
     6     2    14 1   
     7     2    23 1   
     8     2    31 1   
     9     3    14 1   
    10     3    32 1   
    11     3    33 1   
    12     4    16 ar  
    13     4    24 ar  
    14     4    34 1   
    15     5    17 ar  
    16     5    24 ar  
    17     5    35 1   
    18     6    12 2   
    19     6    18 1   
    20     6    36 1   
    21     7    18 ar  
    22     7    25 ar  
    23     7    37 1   
    24     8    19 ar  
    25     8    25 ar  
    26     8    38 1   
    27     9    28 1   
    28     9    39 1   
    29     9    40 1   
    30     9    41 1   
    31    10    11 1   
    32    10    28 1   
    33    10    42 1   
    34    10    43 1   
    35    11    44 1   
    36    11    45 1   
    37    11    53 1   
    38    12    21 1   
    39    13    22 1   
    40    13    23 1   
    41    13    52 2   
    42    14    48 1   
    43    14    49 1   
    44    15    16 ar  
    45    15    17 ar  
    46    15    23 1   
    47    16    50 1   
    48    17    22 1   
    49    18    20 ar  
    50    19    20 ar  
    51    19    51 1   
    52    20    21 1   
    53    21    53 1   
    54    26    28 2   
    55    27    28 2   
    56    46    53 1   
    57    47    53 1   
@<TRIPOS>SUBSTRUCTURE
     1 R0P         1 TEMP              0 ****  ****    0 ROOT
