@<TRIPOS>MOLECULE
R0P
   53    57     1     0     0
SMALL
No Charge or Current Charge


@<TRIPOS>ATOM
      1 C10         19.6420    19.8240    18.5070 c3         1 R0P       0.179200
      2 C15         18.6130    15.0680    17.2640 cx         1 R0P       0.054700
      3 C17         19.0390    14.7590    15.8480 cx         1 R0P      -0.125900
      4 C20         20.2590    15.5400    21.4860 ca         1 R0P       0.335900
      5 C22         20.2600    17.8260    20.9820 ca         1 R0P       0.350900
      6 C24         19.5050    21.4830    20.5130 cc         1 R0P      -0.198200
      7 C26         18.4450    22.8390    22.4470 ca         1 R0P       0.396900
      8 C28         16.1480    22.5230    22.6960 ca         1 R0P       0.347900
      9 C01         14.0180    14.9170    18.7440 c3         1 R0P      -0.337100
     10 C05         15.3340    17.4120    19.0930 c3         1 R0P      -0.302400
     11 C06         16.2200    18.3730    19.9280 c3         1 R0P      -0.075400
     12 C09         18.9390    20.5960    19.6010 cd         1 R0P      -0.098300
     13 C12         18.9370    17.5820    17.5420 c          1 R0P       0.591000
     14 C16         19.5250    13.8960    16.9860 cx         1 R0P      -0.125900
     15 C18         19.6150    16.2330    19.2900 ca         1 R0P       0.049600
     16 C19         19.8040    15.1870    20.1980 ca         1 R0P      -0.146000
     17 C23         19.8910    17.5360    19.6570 ca         1 R0P      -0.066400
     18 C25         18.4450    21.9470    21.3620 ca         1 R0P      -0.162800
     19 C29         16.0950    21.6200    21.6130 ca         1 R0P      -0.179000
     20 C30         17.2960    21.3440    20.9460 ca         1 R0P      -0.014200
     21 N08         17.5460    20.5100    19.8660 na         1 R0P      -0.075700
     22 N11         19.4330    18.3680    18.5930 n          1 R0P      -0.295000
     23 N14         19.0580    16.2540    17.9820 n          1 R0P      -0.258000
     24 N21         20.4740    16.8280    21.8830 nb         1 R0P      -0.666000
     25 N27         17.2960    23.1270    23.1140 nb         1 R0P      -0.689000
     26 O03         16.2970    15.1280    20.0540 o          1 R0P      -0.516000
     27 O04         14.1980    16.0900    21.1020 o          1 R0P      -0.516000
     28 S02         15.0180    15.8320    19.9130 s6         1 R0P       1.083000
     29 H1          20.7200    20.0230    18.5600 h1         1 R0P       0.078200
     30 H2          19.2880    20.1900    17.5350 h1         1 R0P       0.078200
     31 H3          17.5810    14.8600    17.5490 h1         1 R0P       0.095700
     32 H4          19.7550    15.4270    15.3760 hc         1 R0P       0.083700
     33 H5          18.2900    14.3450    15.1770 hc         1 R0P       0.083700
     34 H6          20.4260    14.7710    22.2390 h4         1 R0P       0.023100
     35 H7          20.3890    18.8490    21.3310 h4         1 R0P       0.032100
     36 H8          20.5580    21.7550    20.5640 ha         1 R0P       0.209000
     37 H9          19.3590    23.3240    22.7880 h4         1 R0P       0.021100
     38 H10         15.2440    22.7730    23.2490 h4         1 R0P       0.017100
     39 H11         13.1020    15.4900    18.5680 h1         1 R0P       0.104367
     40 H12         14.6000    14.8050    17.8230 h1         1 R0P       0.104367
     41 H13         13.7960    13.9430    19.1910 h1         1 R0P       0.104367
     42 H14         15.8210    17.1680    18.1410 h1         1 R0P       0.099700
     43 H15         14.3530    17.8600    18.8950 h1         1 R0P       0.099700
     44 H16         17.1650    17.8730    20.1690 hc         1 R0P       0.075700
     45 H17         15.7320    18.5970    20.8850 hc         1 R0P       0.075700
     46 H18         16.8620    19.4780    18.1730 h1         1 R0P       0.068700
     47 H19         15.5970    20.2850    19.1020 h1         1 R0P       0.068700
     48 H20         19.1060    12.8980    17.0840 hc         1 R0P       0.083700
     49 H21         20.5690    13.9840    17.2770 hc         1 R0P       0.083700
     50 H22         19.5860    14.1550    19.9430 ha         1 R0P       0.139000
     51 H23         15.1540    21.1650    21.3190 ha         1 R0P       0.124000
     52 O13         18.4920    17.9720    16.4710 o          1 R0P      -0.573000
     53 C07         16.5190    19.6960    19.1910 c3         1 R0P       0.077600
@<TRIPOS>BOND
     1     1    12 1   
     2     1    22 1   
     3     1    29 1   
     4     1    30 1   
     5     2     3 1   
     6     2    14 1   
     7     2    23 1   
     8     2    31 1   
     9     3    14 1   
    10     3    32 1   
    11     3    33 1   
    12     4    16 ar  
    13     4    24 ar  
    14     4    34 1   
    15     5    17 ar  
    16     5    24 ar  
    17     5    35 1   
    18     6    12 2   
    19     6    18 1   
    20     6    36 1   
    21     7    18 ar  
    22     7    25 ar  
    23     7    37 1   
    24     8    19 ar  
    25     8    25 ar  
    26     8    38 1   
    27     9    28 1   
    28     9    39 1   
    29     9    40 1   
    30     9    41 1   
    31    10    11 1   
    32    10    28 1   
    33    10    42 1   
    34    10    43 1   
    35    11    44 1   
    36    11    45 1   
    37    11    53 1   
    38    12    21 1   
    39    13    22 1   
    40    13    23 1   
    41    13    52 2   
    42    14    48 1   
    43    14    49 1   
    44    15    16 ar  
    45    15    17 ar  
    46    15    23 1   
    47    16    50 1   
    48    17    22 1   
    49    18    20 ar  
    50    19    20 ar  
    51    19    51 1   
    52    20    21 1   
    53    21    53 1   
    54    26    28 2   
    55    27    28 2   
    56    46    53 1   
    57    47    53 1   
@<TRIPOS>SUBSTRUCTURE
     1 R0P         1 TEMP              0 ****  ****    0 ROOT
