@<TRIPOS>MOLECULE
R0Q
   50    53     1     0     0
SMALL
No Charge or Current Charge


@<TRIPOS>ATOM
      1 N1         -20.0370     5.1830    27.3470 ns         1 R0Q      -0.165000
      2 C4         -22.6320     5.9080    28.2830 c6         1 R0Q      -0.108400
      3 C5         -21.9750     6.8400    29.3210 c6         1 R0Q       0.157600
      4 C6         -22.3250     5.0940    30.9820 ca         1 R0Q       0.156100
      5 C7         -22.4210     4.7650    32.3440 ca         1 R0Q      -0.135000
      6 C8         -22.4140     3.4230    32.7540 ca         1 R0Q      -0.060000
      7 C10        -22.2280     2.7240    30.4300 ca         1 R0Q      -0.054000
      8 C13        -18.7340     5.2860    26.7680 ca         1 R0Q      -0.086000
      9 C15        -16.2070     5.4500    25.6430 ca         1 R0Q       0.356900
     10 C17        -16.4570     7.8590    25.3230 ca         1 R0Q      -0.076000
     11 C20        -19.0290     7.7320    26.4570 ca         1 R0Q      -0.111000
     12 C21        -18.2620     6.5500    26.3360 ca         1 R0Q      -0.022000
     13 O3         -20.1860     3.0390    28.1500 o          1 R0Q      -0.553100
     14 C12        -20.7020     4.1370    27.9820 c          1 R0Q       0.598100
     15 C3         -22.1640     4.4230    28.4810 c6         1 R0Q      -0.093700
     16 C11        -22.2430     4.0730    29.9970 ca         1 R0Q      -0.138300
     17 C9         -22.3130     2.4050    31.7950 ca         1 R0Q       0.088000
     18 Cl         -22.2950     0.7210    32.3030 cl         1 R0Q      -0.210000
     19 O2         -22.3460     6.4320    30.6480 os         1 R0Q      -0.343100
     20 C2         -23.0840     3.4880    27.6210 c3         1 R0Q       0.130000
     21 N          -24.4620     3.4050    28.1180 ns         1 R0Q      -0.501900
     22 C1         -25.5430     4.0010    27.5370 c          1 R0Q       0.634100
     23 O1         -25.5180     4.6550    26.5060 o          1 R0Q      -0.548000
     24 O          -26.6450     3.7450    28.2940 os         1 R0Q      -0.459100
     25 C          -27.9010     4.2940    27.8540 c3         1 R0Q       0.169900
     26 C19        -18.5110     8.9620    26.0140 ca         1 R0Q      -0.085000
     27 C18        -17.2280     9.0260    25.4480 ca         1 R0Q      -0.111000
     28 C16        -16.9720     6.6250    25.7650 ca         1 R0Q      -0.090000
     29 N2         -16.6470     4.2380    26.0440 nb         1 R0Q      -0.648000
     30 C14        -17.8820     4.1640    26.5930 ca         1 R0Q       0.338900
     31 H1         -20.5810     6.0310    27.2740 hn         1 R0Q       0.158000
     32 H2         -22.4450     6.2650    27.2600 hc         1 R0Q       0.067700
     33 H3         -23.7180     5.9850    28.4210 hc         1 R0Q       0.067700
     34 H4         -20.8800     6.8130    29.2390 h1         1 R0Q       0.063700
     35 H5         -22.3010     7.8780    29.1650 h1         1 R0Q       0.063700
     36 H6         -22.4970     5.5570    33.0840 ha         1 R0Q       0.135000
     37 H7         -22.4830     3.1720    33.8090 ha         1 R0Q       0.134000
     38 H8         -22.1450     1.9110    29.7140 ha         1 R0Q       0.127000
     39 H9         -15.2090     5.4780    25.2060 h4         1 R0Q       0.023100
     40 H10        -15.4630     7.9150    24.8840 ha         1 R0Q       0.120000
     41 H11        -20.0250     7.7200    26.8890 ha         1 R0Q       0.110000
     42 H12        -22.6740     2.4690    27.6070 h1         1 R0Q       0.069200
     43 H13        -23.0860     3.8420    26.5810 h1         1 R0Q       0.069200
     44 H14        -24.6450     2.9110    28.9820 hn         1 R0Q       0.337500
     45 H15        -28.7030     4.0160    28.5490 h1         1 R0Q       0.051033
     46 H16        -27.8550     5.3900    27.8080 h1         1 R0Q       0.051033
     47 H17        -28.1670     3.9150    26.8590 h1         1 R0Q       0.051033
     48 H18        -19.1070     9.8680    26.1100 ha         1 R0Q       0.116000
     49 H19        -16.8310     9.9800    25.1070 ha         1 R0Q       0.119000
     50 H20        -18.1830     3.1620    26.8820 h4         1 R0Q       0.034100
@<TRIPOS>BOND
     1     1     8 1   
     2     1    14 1   
     3     1    31 1   
     4     2     3 1   
     5     2    15 1   
     6     2    32 1   
     7     2    33 1   
     8     3    19 1   
     9     3    34 1   
    10     3    35 1   
    11     4     5 ar  
    12     4    16 ar  
    13     4    19 1   
    14     5     6 ar  
    15     5    36 1   
    16     6    17 ar  
    17     6    37 1   
    18     7    16 ar  
    19     7    17 ar  
    20     7    38 1   
    21     8    12 ar  
    22     8    30 ar  
    23     9    28 ar  
    24     9    29 ar  
    25     9    39 1   
    26    10    27 ar  
    27    10    28 ar  
    28    10    40 1   
    29    11    12 ar  
    30    11    26 ar  
    31    11    41 1   
    32    12    28 ar  
    33    13    14 2   
    34    14    15 1   
    35    15    16 1   
    36    15    20 1   
    37    17    18 1   
    38    20    21 1   
    39    20    42 1   
    40    20    43 1   
    41    21    22 1   
    42    21    44 1   
    43    22    23 2   
    44    22    24 1   
    45    24    25 1   
    46    25    45 1   
    47    25    46 1   
    48    25    47 1   
    49    26    27 ar  
    50    26    48 1   
    51    27    49 1   
    52    29    30 ar  
    53    30    50 1   
@<TRIPOS>SUBSTRUCTURE
     1 R0Q         1 TEMP              0 ****  ****    0 ROOT
