@<TRIPOS>MOLECULE
R0Q
   50    53     1     0     0
SMALL
abcg2


@<TRIPOS>ATOM
      1 N1         -20.2900     5.0730    27.0980 ns         1 R0Q      -0.165000
      2 C4         -22.6040     6.0190    28.6630 c6         1 R0Q      -0.108400
      3 C5         -21.9940     6.8650    29.7560 c6         1 R0Q       0.157600
      4 C6         -22.3350     5.0110    31.2180 ca         1 R0Q       0.156100
      5 C7         -22.4940     4.5610    32.5310 ca         1 R0Q      -0.135000
      6 C8         -22.4890     3.2080    32.8210 ca         1 R0Q      -0.060000
      7 C10        -22.1690     2.7370    30.4760 ca         1 R0Q      -0.054000
      8 C13        -18.9950     5.1790    26.5410 ca         1 R0Q      -0.086000
      9 C15        -16.4920     5.2670    25.4460 ca         1 R0Q       0.356900
     10 C17        -16.6370     7.7260    25.1900 ca         1 R0Q      -0.076000
     11 C20        -19.1890     7.6710    26.3590 ca         1 R0Q      -0.111000
     12 C21        -18.4910     6.4550    26.1710 ca         1 R0Q      -0.022000
     13 O3         -19.7060     4.0110    29.0130 o          1 R0Q      -0.553100
     14 C12        -20.5640     4.5250    28.3120 c          1 R0Q       0.598100
     15 C3         -22.0560     4.5820    28.7280 c6         1 R0Q      -0.093700
     16 C11        -22.1860     4.0980    30.1660 ca         1 R0Q      -0.138300
     17 C9         -22.3190     2.3040    31.7800 ca         1 R0Q       0.088000
     18 CL         -22.2950     0.5830    32.1240 cl         1 R0Q      -0.210000
     19 O2         -22.3490     6.3610    31.0540 os         1 R0Q      -0.343100
     20 C2         -22.8410     3.6680    27.7440 c3         1 R0Q       0.130000
     21 N          -24.2330     3.5120    28.0960 ns         1 R0Q      -0.501900
     22 C1         -25.2370     4.1300    27.4360 c          1 R0Q       0.634100
     23 O1         -25.1080     4.8510    26.4600 o          1 R0Q      -0.548000
     24 O          -26.4260     3.8360    28.0050 os         1 R0Q      -0.459100
     25 C          -27.5810     4.4450    27.4030 c3         1 R0Q       0.169900
     26 C19        -18.6210     8.8570    25.9650 ca         1 R0Q      -0.085000
     27 C18        -17.3400     8.8880    25.3720 ca         1 R0Q      -0.111000
     28 C16        -17.1930     6.4880    25.5890 ca         1 R0Q      -0.090000
     29 N2         -16.9740     4.1010    25.8130 nb         1 R0Q      -0.648000
     30 C14        -18.2200     4.0640    26.3460 ca         1 R0Q       0.338900
     31 H1         -21.0310     5.5500    26.6090 hn         1 R0Q       0.158000
     32 H2         -22.4210     6.4850    27.6960 hc         1 R0Q       0.067700
     33 H3         -23.6860     5.9880    28.8000 hc         1 R0Q       0.067700
     34 H4         -20.9030     6.8920    29.6780 h1         1 R0Q       0.063700
     35 H5         -22.3690     7.8860    29.7290 h1         1 R0Q       0.063700
     36 H6         -22.6170     5.2920    33.3200 ha         1 R0Q       0.135000
     37 H7         -22.6100     2.8630    33.8380 ha         1 R0Q       0.134000
     38 H8         -22.0350     2.0060    29.6920 ha         1 R0Q       0.127000
     39 H9         -15.4980     5.2810    25.0090 h4         1 R0Q       0.023100
     40 H10        -15.6490     7.7360    24.7460 ha         1 R0Q       0.120000
     41 H11        -20.1660     7.6670    26.8230 ha         1 R0Q       0.110000
     42 H12        -22.3710     2.6860    27.6940 h1         1 R0Q       0.069200
     43 H13        -22.8040     4.0970    26.7460 h1         1 R0Q       0.069200
     44 H14        -24.4770     2.9530    28.8990 hn         1 R0Q       0.337500
     45 H15        -28.4280     4.0990    27.9900 h1         1 R0Q       0.051033
     46 H16        -27.5080     5.5310    27.4500 h1         1 R0Q       0.051033
     47 H17        -27.6860     4.1280    26.3660 h1         1 R0Q       0.051033
     48 H18        -19.1590     9.7850    26.1160 ha         1 R0Q       0.116000
     49 H19        -16.9150     9.8360    25.0690 ha         1 R0Q       0.119000
     50 H20        -18.5990     3.0890    26.6240 h4         1 R0Q       0.034100
@<TRIPOS>BOND
     1     1     8 1   
     2     1    14 1   
     3     1    31 1   
     4     2     3 1   
     5     2    15 1   
     6     2    32 1   
     7     2    33 1   
     8     3    19 1   
     9     3    34 1   
    10     3    35 1   
    11     4     5 ar  
    12     4    16 ar  
    13     4    19 1   
    14     5     6 ar  
    15     5    36 1   
    16     6    17 ar  
    17     6    37 1   
    18     7    16 ar  
    19     7    17 ar  
    20     7    38 1   
    21     8    12 ar  
    22     8    30 ar  
    23     9    28 ar  
    24     9    29 ar  
    25     9    39 1   
    26    10    27 ar  
    27    10    28 ar  
    28    10    40 1   
    29    11    12 ar  
    30    11    26 ar  
    31    11    41 1   
    32    12    28 ar  
    33    13    14 2   
    34    14    15 1   
    35    15    16 1   
    36    15    20 1   
    37    17    18 1   
    38    20    21 1   
    39    20    42 1   
    40    20    43 1   
    41    21    22 1   
    42    21    44 1   
    43    22    23 2   
    44    22    24 1   
    45    24    25 1   
    46    25    45 1   
    47    25    46 1   
    48    25    47 1   
    49    26    27 ar  
    50    26    48 1   
    51    27    49 1   
    52    29    30 ar  
    53    30    50 1   
@<TRIPOS>SUBSTRUCTURE
     1 R0Q         1 TEMP              0 ****  ****    0 ROOT
