@<TRIPOS>MOLECULE
R0R
   39    43     1     0     0
SMALL
No Charge or Current Charge


@<TRIPOS>ATOM
      1 N1         -45.5740   -29.8010     3.1510 nh         1 R0R      -0.754300
      2 C16        -45.3490   -28.8230    -0.0480 cy         1 R0R       0.160600
      3 C17        -43.5540   -29.8240    -0.1780 cy         1 R0R       0.160600
      4 C15        -44.6790   -29.8700     0.9060 cy         1 R0R      -0.148000
      5 C14        -44.3830   -29.4400     2.3550 c5         1 R0R       0.230800
      6 C13        -44.4780   -30.3360     6.5160 ca         1 R0R       0.182900
      7 C12        -46.6310   -29.6450     6.7270 ca         1 R0R       0.192500
      8 C11        -48.6170   -28.4760     3.8160 ca         1 R0R      -0.037000
      9 C10        -49.9400   -27.9770     3.8530 ca         1 R0R      -0.172000
     10 C9         -50.6550   -27.9240     5.0730 ca         1 R0R       0.172000
     11 C8         -50.0630   -28.3520     6.2780 ca         1 R0R      -0.185000
     12 C7         -48.7590   -28.8470     6.2040 ca         1 R0R      -0.006200
     13 C6         -48.0420   -28.9410     5.0170 cp         1 R0R      -0.043000
     14 C5         -46.7190   -29.4730     5.3430 cp         1 R0R      -0.236000
     15 C4         -45.5910   -29.8040     4.5590 ca         1 R0R       0.441900
     16 C3         -46.3970   -30.7680     2.3690 c5         1 R0R       0.193800
     17 C2         -45.4140   -31.2180     1.2310 c5         1 R0R       0.058000
     18 C1         -46.2170   -31.7960    -0.0050 c          1 R0R       0.725000
     19 O1         -44.5820   -29.4210    -1.1490 oq         1 R0R      -0.473000
     20 F2         -44.5220   -32.2010     1.7150 f          1 R0R      -0.278000
     21 N2         -47.8930   -29.2820     7.2130 na         1 R0R      -0.337300
     22 N3         -45.5180   -30.0750     7.3390 nb         1 R0R      -0.272000
     23 N4         -44.4610   -30.2300     5.1660 nb         1 R0R      -0.301000
     24 H10        -46.4330   -28.9140    -0.1830 h1         1 R0R       0.060950
     25 H11        -45.0540   -27.7810     0.1310 h1         1 R0R       0.060950
     26 H13        -42.8030   -29.0370    -0.0320 h1         1 R0R       0.060950
     27 H12        -43.0890   -30.7850    -0.4260 h1         1 R0R       0.060950
     28 H9         -44.1750   -28.3640     2.4330 h1         1 R0R       0.058200
     29 H8         -43.4910   -29.9550     2.7400 h1         1 R0R       0.058200
     30 H7         -43.5600   -30.6820     6.9870 h5         1 R0R       0.035100
     31 H5         -48.0540   -28.4760     2.8880 ha         1 R0R       0.143000
     32 H4         -50.4080   -27.6180     2.9400 ha         1 R0R       0.134000
     33 H3         -50.5970   -28.2870     7.2220 ha         1 R0R       0.126000
     34 H1         -47.2960   -30.2840     1.9680 h1         1 R0R       0.077200
     35 H2         -46.7230   -31.6270     2.9740 h1         1 R0R       0.077200
     36 H6         -48.1410   -29.3220     8.1940 hn         1 R0R       0.357000
     37 O2         -45.6510   -32.5560    -0.7830 o          1 R0R      -0.695500
     38 O3         -47.4110   -31.5470    -0.1310 o          1 R0R      -0.695500
     39 F1         -51.9130   -27.4340     5.0860 f          1 R0R      -0.195000
@<TRIPOS>BOND
     1     1     5 1   
     2     1    15 1   
     3     1    16 1   
     4     2     4 1   
     5     2    19 1   
     6     2    24 1   
     7     2    25 1   
     8     3     4 1   
     9     3    19 1   
    10     3    26 1   
    11     3    27 1   
    12     4     5 1   
    13     4    17 1   
    14     5    28 1   
    15     5    29 1   
    16     6    22 ar  
    17     6    23 ar  
    18     6    30 1   
    19     7    14 ar  
    20     7    21 1   
    21     7    22 ar  
    22     8     9 ar  
    23     8    13 ar  
    24     8    31 1   
    25     9    10 ar  
    26     9    32 1   
    27    10    11 ar  
    28    10    39 1   
    29    11    12 ar  
    30    11    33 1   
    31    12    13 ar  
    32    12    21 1   
    33    13    14 1   
    34    14    15 ar  
    35    15    23 ar  
    36    16    17 1   
    37    16    34 1   
    38    16    35 1   
    39    17    18 1   
    40    17    20 1   
    41    18    37 1   
    42    18    38 1   
    43    21    36 1   
@<TRIPOS>SUBSTRUCTURE
     1 R0R         1 TEMP              0 ****  ****    0 ROOT
