@<TRIPOS>MOLECULE
R0R
   39    43     1     0     0
SMALL
abcg2


@<TRIPOS>ATOM
      1 N1         -45.4760   -29.5740     3.0480 nh         1 R0R      -0.754300
      2 C16        -44.6080   -28.8750    -0.0770 cy         1 R0R       0.160600
      3 C17        -43.4570   -30.6050     0.0180 cy         1 R0R       0.160600
      4 C15        -44.5480   -30.0400     0.9340 cy         1 R0R      -0.148000
      5 C14        -44.1780   -29.7010     2.3700 c5         1 R0R       0.230800
      6 C13        -44.3230   -29.4690     6.3650 ca         1 R0R       0.182900
      7 C12        -46.5320   -29.3800     6.5580 ca         1 R0R       0.192500
      8 C11        -48.9820   -28.7970     3.8700 ca         1 R0R      -0.037000
      9 C10        -50.3380   -28.5730     4.0710 ca         1 R0R      -0.172000
     10 C9         -50.8550   -28.6240     5.3610 ca         1 R0R       0.172000
     11 C8         -50.0870   -28.8690     6.4800 ca         1 R0R      -0.185000
     12 C7         -48.7320   -29.0820     6.2560 ca         1 R0R      -0.006200
     13 C6         -48.1490   -29.0810     4.9570 cp         1 R0R      -0.043000
     14 C5         -46.7250   -29.3140     5.1570 cp         1 R0R      -0.236000
     15 C4         -45.5370   -29.4510     4.3940 ca         1 R0R       0.441900
     16 C3         -46.5540   -30.1170     2.2120 c5         1 R0R       0.193800
     17 C2         -45.8250   -30.8700     1.1140 c5         1 R0R       0.058000
     18 C1         -46.6460   -31.1440    -0.1760 c          1 R0R       0.725000
     19 O1         -43.6220   -29.5150    -0.9290 oq         1 R0R      -0.473000
     20 F2         -45.4000   -32.1100     1.6640 f          1 R0R      -0.278000
     21 N2         -47.7390   -29.2850     7.1900 na         1 R0R      -0.337300
     22 N3         -45.3620   -29.4710     7.1960 nb         1 R0R      -0.272000
     23 N4         -44.3450   -29.4640     5.0380 nb         1 R0R      -0.301000
     24 H10        -45.5570   -28.7310    -0.5910 h1         1 R0R       0.060950
     25 H11        -44.2420   -27.9260     0.3200 h1         1 R0R       0.060950
     26 H13        -42.4550   -30.6110     0.4540 h1         1 R0R       0.060950
     27 H12        -43.6780   -31.5730    -0.4320 h1         1 R0R       0.060950
     28 H9         -43.6030   -28.7790     2.4480 h1         1 R0R       0.058200
     29 H8         -43.5890   -30.5040     2.8170 h1         1 R0R       0.058200
     30 H7         -43.3390   -29.4850     6.8250 h5         1 R0R       0.035100
     31 H5         -48.5940   -28.7270     2.8680 ha         1 R0R       0.143000
     32 H4         -50.9950   -28.3510     3.2420 ha         1 R0R       0.134000
     33 H3         -50.5200   -28.8750     7.4720 ha         1 R0R       0.126000
     34 H1         -47.1400   -29.3300     1.7430 h1         1 R0R       0.077200
     35 H2         -47.2100   -30.7730     2.7820 h1         1 R0R       0.077200
     36 H6         -47.8590   -29.2670     8.1900 hn         1 R0R       0.357000
     37 O2         -46.3670   -32.1880    -0.8000 o          1 R0R      -0.695500
     38 O3         -47.4860   -30.2650    -0.4810 o          1 R0R      -0.695500
     39 F1         -52.1850   -28.4010     5.5290 f          1 R0R      -0.195000
@<TRIPOS>BOND
     1     1     5 1   
     2     1    15 1   
     3     1    16 1   
     4     2     4 1   
     5     2    19 1   
     6     2    24 1   
     7     2    25 1   
     8     3     4 1   
     9     3    19 1   
    10     3    26 1   
    11     3    27 1   
    12     4     5 1   
    13     4    17 1   
    14     5    28 1   
    15     5    29 1   
    16     6    22 ar  
    17     6    23 ar  
    18     6    30 1   
    19     7    14 ar  
    20     7    21 1   
    21     7    22 ar  
    22     8     9 ar  
    23     8    13 ar  
    24     8    31 1   
    25     9    10 ar  
    26     9    32 1   
    27    10    11 ar  
    28    10    39 1   
    29    11    12 ar  
    30    11    33 1   
    31    12    13 ar  
    32    12    21 1   
    33    13    14 1   
    34    14    15 ar  
    35    15    23 ar  
    36    16    17 1   
    37    16    34 1   
    38    16    35 1   
    39    17    18 1   
    40    17    20 1   
    41    18    37 1   
    42    18    38 1   
    43    21    36 1   
@<TRIPOS>SUBSTRUCTURE
     1 R0R         1 TEMP              0 ****  ****    0 ROOT
