@<TRIPOS>MOLECULE
R0S
   60    64     1     0     0
SMALL
No Charge or Current Charge


@<TRIPOS>ATOM
      1 C10         19.0900    11.9030    14.8250 c3         1 R0S       0.150900
      2 C15         20.1520    19.8100    18.8160 c3         1 R0S       0.179200
      3 C17         19.5870    21.5400    20.6800 cc         1 R0S      -0.213200
      4 C20         16.8500    23.3340    22.5920 ca         1 R0S       0.092000
      5 C22         15.7650    22.7340    21.9100 ca         1 R0S      -0.081000
      6 C24         17.3320    21.4760    20.5650 ca         1 R0S      -0.039200
      7 C28         15.6370    17.5820    18.4500 c3         1 R0S      -0.022300
      8 C01         15.7200    11.8610    15.6840 c3         1 R0S       0.150900
      9 C03         17.3570    12.7780    17.2470 ca         1 R0S       0.088100
     10 C04         17.1710    13.1540    18.5860 ca         1 R0S      -0.108000
     11 C05         17.8210    14.2860    19.1070 ca         1 R0S      -0.111000
     12 C06         18.6750    15.0640    18.2970 ca         1 R0S       0.049600
     13 C07         18.8590    14.6810    16.9520 ca         1 R0S      -0.102000
     14 C08         18.2320    13.5380    16.4270 ca         1 R0S       0.091100
     15 C12         19.5570    17.4520    18.1080 c          1 R0S       0.595000
     16 C16         19.2300    20.6350    19.6860 cd         1 R0S      -0.095300
     17 C18         18.3740    22.0640    21.2310 ca         1 R0S      -0.096800
     18 C19         18.1770    23.0000    22.2540 ca         1 R0S      -0.047000
     19 C23         16.0000    21.7940    20.8830 ca         1 R0S      -0.120000
     20 C27         16.3840    18.5260    19.4230 c3         1 R0S      -0.095400
     21 C29         15.0400    16.4230    19.1250 c1         1 R0S       0.302900
     22 C31         20.0660    17.7560    20.3460 ca         1 R0S      -0.058400
     23 C32         20.6650    18.1740    21.5470 ca         1 R0S       0.354900
     24 C34         20.3070    16.0610    22.4720 ca         1 R0S       0.337900
     25 C35         19.7840    15.5500    21.2650 ca         1 R0S      -0.159000
     26 C36         19.6710    16.4400    20.1870 ca         1 R0S       0.039600
     27 N11         19.3190    16.2500    18.8090 n          1 R0S      -0.209200
     28 N14         20.0450    18.3590    19.0570 n          1 R0S      -0.292000
     29 N25         17.8140    20.5910    19.6080 na         1 R0S      -0.073700
     30 N30         14.5460    15.5220    19.6740 n1         1 R0S      -0.465000
     31 N33         20.7520    17.3400    22.6170 nb         1 R0S      -0.663000
     32 O09         18.5250    13.1930    15.1240 os         1 R0S      -0.357100
     33 O13         19.3230    17.6890    16.9310 o          1 R0S      -0.555000
     34 H1          19.3010    11.8210    13.7520 h1         1 R0S       0.040700
     35 H2          20.0320    11.7600    15.3690 h1         1 R0S       0.040700
     36 H3          18.4090    11.0890    15.0970 h1         1 R0S       0.040700
     37 H4          21.1890    20.1150    19.0030 h1         1 R0S       0.080200
     38 H5          19.9370    20.0290    17.7630 h1         1 R0S       0.080200
     39 H6          20.6030    21.7910    20.9750 ha         1 R0S       0.208000
     40 H7          14.7460    23.0000    22.1780 ha         1 R0S       0.128000
     41 H8          17.5440    19.4770    17.8490 h1         1 R0S       0.068700
     42 H9          16.1340    20.4060    18.3580 h1         1 R0S       0.068700
     43 H10         16.3270    17.2190    17.6800 hc         1 R0S       0.079200
     44 H11         14.8390    18.1320    17.9380 hc         1 R0S       0.079200
     45 H12         15.2080    10.9140    15.4730 h1         1 R0S       0.041367
     46 H13         14.9580    12.6120    15.9300 h1         1 R0S       0.041367
     47 H14         16.2330    12.1790    14.7700 h1         1 R0S       0.041367
     48 H15         16.4920    12.5840    19.2150 ha         1 R0S       0.138000
     49 H16         17.6000    14.5830    20.1270 ha         1 R0S       0.132000
     50 H17         19.5260    15.2450    16.3080 ha         1 R0S       0.142000
     51 H18         19.0180    23.4550    22.7710 ha         1 R0S       0.133000
     52 H19         15.1670    21.3340    20.3570 ha         1 R0S       0.119000
     53 H20         15.7040    18.8440    20.2230 hc         1 R0S       0.063700
     54 H21         17.1990    17.9760    19.9060 hc         1 R0S       0.063700
     55 H22         21.0800    19.1750    21.6600 h4         1 R0S       0.034100
     56 H23         20.4170    15.4120    23.3400 h4         1 R0S       0.025100
     57 H24         19.5380    14.4960    21.1850 ha         1 R0S       0.140000
     58 O02         16.6380    11.6980    16.7810 os         1 R0S      -0.360100
     59 Cl21        16.5400    24.5040    23.8690 cl         1 R0S      -0.210000
     60 C26         16.9570    19.7800    18.7240 c3         1 R0S       0.069600
@<TRIPOS>BOND
     1     1    32 1   
     2     1    34 1   
     3     1    35 1   
     4     1    36 1   
     5     2    16 1   
     6     2    28 1   
     7     2    37 1   
     8     2    38 1   
     9     3    16 2   
    10     3    17 1   
    11     3    39 1   
    12     4     5 ar  
    13     4    18 ar  
    14     4    59 1   
    15     5    19 ar  
    16     5    40 1   
    17     6    17 ar  
    18     6    19 ar  
    19     6    29 1   
    20     7    20 1   
    21     7    21 1   
    22     7    43 1   
    23     7    44 1   
    24     8    45 1   
    25     8    46 1   
    26     8    47 1   
    27     8    58 1   
    28     9    10 ar  
    29     9    14 ar  
    30     9    58 1   
    31    10    11 ar  
    32    10    48 1   
    33    11    12 ar  
    34    11    49 1   
    35    12    13 ar  
    36    12    27 1   
    37    13    14 ar  
    38    13    50 1   
    39    14    32 1   
    40    15    27 1   
    41    15    28 1   
    42    15    33 2   
    43    16    29 1   
    44    17    18 ar  
    45    18    51 1   
    46    19    52 1   
    47    20    53 1   
    48    20    54 1   
    49    20    60 1   
    50    21    30 3   
    51    22    23 ar  
    52    22    26 ar  
    53    22    28 1   
    54    23    31 ar  
    55    23    55 1   
    56    24    25 ar  
    57    24    31 ar  
    58    24    56 1   
    59    25    26 ar  
    60    25    57 1   
    61    26    27 1   
    62    29    60 1   
    63    41    60 1   
    64    42    60 1   
@<TRIPOS>SUBSTRUCTURE
     1 R0S         1 TEMP              0 ****  ****    0 ROOT
