@<TRIPOS>MOLECULE
R0S
   60    64     1     0     0
SMALL
abcg2


@<TRIPOS>ATOM
      1 C10         19.8060    11.7940    15.3710 c3         1 R0S       0.150900
      2 C15         19.8580    19.6960    18.7440 c3         1 R0S       0.179200
      3 C17         19.6030    21.4250    20.6110 cc         1 R0S      -0.213200
      4 C20         17.1270    23.4300    22.6230 ca         1 R0S       0.092000
      5 C22         15.9690    22.9210    22.0190 ca         1 R0S      -0.081000
      6 C24         17.3340    21.5510    20.6390 ca         1 R0S      -0.039200
      7 C28         15.3560    17.8460    18.6590 c3         1 R0S      -0.022300
      8 C01         15.8170    11.8760    15.5250 c3         1 R0S       0.150900
      9 C03         17.3470    12.7480    17.0630 ca         1 R0S       0.088100
     10 C04         16.8630    13.2750    18.2520 ca         1 R0S      -0.108000
     11 C05         17.4410    14.4040    18.8090 ca         1 R0S      -0.111000
     12 C06         18.5130    15.0080    18.1700 ca         1 R0S       0.049600
     13 C07         19.0170    14.4860    16.9860 ca         1 R0S      -0.102000
     14 C08         18.4280    13.3650    16.4220 ca         1 R0S       0.091100
     15 C12         19.1060    17.4040    18.1040 c          1 R0S       0.595000
     16 C16         19.0890    20.5720    19.6760 cd         1 R0S      -0.095300
     17 C18         18.5000    22.0660    21.2440 ca         1 R0S      -0.096800
     18 C19         18.3910    23.0240    22.2560 ca         1 R0S      -0.047000
     19 C23         16.0620    21.9730    21.0200 ca         1 R0S      -0.120000
     20 C27         16.2420    18.6630    19.6000 c3         1 R0S      -0.095400
     21 C29         14.7470    16.7120    19.3330 c1         1 R0S       0.302900
     22 C31         20.0250    17.6100    20.1530 ca         1 R0S      -0.058400
     23 C32         20.6360    18.0040    21.3260 ca         1 R0S       0.354900
     24 C34         20.5130    15.8550    22.1260 ca         1 R0S       0.337900
     25 C35         19.8960    15.3560    20.9830 ca         1 R0S      -0.159000
     26 C36         19.6550    16.2760    19.9840 ca         1 R0S       0.039600
     27 N11         19.0970    16.1670    18.7320 n          1 R0S      -0.209200
     28 N14         19.6720    18.2810    18.9980 n          1 R0S      -0.292000
     29 N25         17.7140    20.6490    19.6830 na         1 R0S      -0.073700
     30 N30         14.2760    15.8150    19.8790 n1         1 R0S      -0.465000
     31 N33         20.8700    17.1230    22.2970 nb         1 R0S      -0.663000
     32 O09         18.8940    12.8790    15.2440 os         1 R0S      -0.357100
     33 O13         18.6760    17.6520    16.9970 o          1 R0S      -0.555000
     34 H1          20.0830    11.4910    14.3640 h1         1 R0S       0.040700
     35 H2          20.7070    12.0950    15.9110 h1         1 R0S       0.040700
     36 H3          19.3550    10.9420    15.8840 h1         1 R0S       0.040700
     37 H4          20.9160    19.9420    18.8370 h1         1 R0S       0.080200
     38 H5          19.5830    19.8790    17.7050 h1         1 R0S       0.080200
     39 H6          20.6520    21.5760    20.8160 ha         1 R0S       0.208000
     40 H7          14.9970    23.2710    22.3380 ha         1 R0S       0.128000
     41 H8          17.2910    19.5950    17.9480 h1         1 R0S       0.068700
     42 H9          15.9710    20.5410    18.5750 h1         1 R0S       0.068700
     43 H10         15.9290    17.4710    17.8080 hc         1 R0S       0.079200
     44 H11         14.5510    18.4620    18.2500 hc         1 R0S       0.079200
     45 H12         15.4590    10.9070    15.1830 h1         1 R0S       0.041367
     46 H13         14.9710    12.4460    15.9190 h1         1 R0S       0.041367
     47 H14         16.2400    12.4150    14.6760 h1         1 R0S       0.041367
     48 H15         16.0250    12.7960    18.7430 ha         1 R0S       0.138000
     49 H16         17.0490    14.8110    19.7320 ha         1 R0S       0.132000
     50 H17         19.8630    14.9480    16.4930 ha         1 R0S       0.142000
     51 H18         19.2720    23.4320    22.7350 ha         1 R0S       0.133000
     52 H19         15.1630    21.5870    20.5590 ha         1 R0S       0.119000
     53 H20         15.6640    18.9780    20.4710 hc         1 R0S       0.063700
     54 H21         17.0570    18.0440    19.9800 hc         1 R0S       0.063700
     55 H22         20.9410    19.0290    21.4980 h4         1 R0S       0.034100
     56 H23         20.7290    15.1800    22.9450 h4         1 R0S       0.025100
     57 H24         19.6310    14.3120    20.8990 ha         1 R0S       0.140000
     58 O02         16.7880    11.6300    16.5350 os         1 R0S      -0.360100
     59 CL21        16.9480    24.6200    23.8790 cl         1 R0S      -0.210000
     60 C26         16.7930    19.8860    18.8730 c3         1 R0S       0.069600
@<TRIPOS>BOND
     1     1    32 1   
     2     1    34 1   
     3     1    35 1   
     4     1    36 1   
     5     2    16 1   
     6     2    28 1   
     7     2    37 1   
     8     2    38 1   
     9     3    16 2   
    10     3    17 1   
    11     3    39 1   
    12     4     5 ar  
    13     4    18 ar  
    14     4    59 1   
    15     5    19 ar  
    16     5    40 1   
    17     6    17 ar  
    18     6    19 ar  
    19     6    29 1   
    20     7    20 1   
    21     7    21 1   
    22     7    43 1   
    23     7    44 1   
    24     8    45 1   
    25     8    46 1   
    26     8    47 1   
    27     8    58 1   
    28     9    10 ar  
    29     9    14 ar  
    30     9    58 1   
    31    10    11 ar  
    32    10    48 1   
    33    11    12 ar  
    34    11    49 1   
    35    12    13 ar  
    36    12    27 1   
    37    13    14 ar  
    38    13    50 1   
    39    14    32 1   
    40    15    27 1   
    41    15    28 1   
    42    15    33 2   
    43    16    29 1   
    44    17    18 ar  
    45    18    51 1   
    46    19    52 1   
    47    20    53 1   
    48    20    54 1   
    49    20    60 1   
    50    21    30 3   
    51    22    23 ar  
    52    22    26 ar  
    53    22    28 1   
    54    23    31 ar  
    55    23    55 1   
    56    24    25 ar  
    57    24    31 ar  
    58    24    56 1   
    59    25    26 ar  
    60    25    57 1   
    61    26    27 1   
    62    29    60 1   
    63    41    60 1   
    64    42    60 1   
@<TRIPOS>SUBSTRUCTURE
     1 R0S         1 TEMP              0 ****  ****    0 ROOT
