@<TRIPOS>MOLECULE
R0T
   67    72     1     0     0
SMALL
No Charge or Current Charge


@<TRIPOS>ATOM
      1 N1         -80.3500   -20.1580    81.3320 nc         1 R0T      -0.514100
      2 N3         -86.6250   -19.9270    89.5100 ns         1 R0T      -0.145000
      3 C4         -81.8320   -20.3910    84.6540 ca         1 R0T       0.463900
      4 C5         -83.9700   -21.4200    85.6330 ca         1 R0T       0.297000
      5 C6         -84.3090   -20.4540    86.6010 ca         1 R0T      -0.063000
      6 C7         -85.3080   -20.6950    87.5730 ca         1 R0T      -0.137600
      7 C8         -85.6230   -19.6190    88.5980 c          1 R0T       0.622700
      8 C10        -88.3000   -19.7720    91.2430 ca         1 R0T      -0.165000
      9 C13        -91.7230   -19.2250    94.1610 cc         1 R0T       0.252300
     10 C15        -91.1670   -18.9760    92.9340 cd         1 R0T      -0.212000
     11 C17        -87.2540   -17.3300    92.1890 ca         1 R0T      -0.142300
     12 C20        -85.9790   -21.9390    87.5480 ca         1 R0T      -0.103000
     13 C21        -85.6620   -22.9000    86.5750 ca         1 R0T      -0.094000
     14 C22        -84.6650   -22.6520    85.6120 ca         1 R0T      -0.095300
     15 C24        -80.2390   -19.1340    85.7620 cp         1 R0T       0.276500
     16 C26        -78.5560   -17.7660    87.1170 ca         1 R0T      -0.029000
     17 C28        -78.9330   -17.4760    89.4900 ca         1 R0T       0.353900
     18 N          -79.5160   -19.4390    82.1940 na         1 R0T      -0.031100
     19 C          -78.2940   -18.7450    81.7590 c3         1 R0T       0.084900
     20 O          -85.0220   -18.5500    88.5960 o          1 R0T      -0.563100
     21 C1         -81.3260   -20.6160    82.1290 cd         1 R0T       0.388800
     22 C11        -88.9010   -19.1340    92.3400 ca         1 R0T       0.040800
     23 C12        -89.8020   -20.2070    94.2290 cd         1 R0T       0.411400
     24 C14        -93.0320   -18.7170    94.6900 c3         1 R0T      -0.108400
     25 C16        -88.3770   -17.9160    92.8110 ca         1 R0T      -0.107000
     26 C18        -86.6680   -16.0100    92.7060 c3         1 R0T       0.345300
     27 C19        -86.6550   -17.9910    91.0930 ca         1 R0T      -0.094000
     28 C2         -79.9730   -19.4530    83.5020 ca         1 R0T       0.168500
     29 C23        -84.3500   -23.7310    84.5760 c3         1 R0T      -0.054800
     30 C25        -79.7480   -18.5360    87.0490 cp         1 R0T      -0.210500
     31 C27        -78.1520   -17.2360    88.3510 ca         1 R0T      -0.181000
     32 C29        -80.4610   -18.7160    88.2650 ca         1 R0T       0.384900
     33 C3         -81.1130   -20.1920    83.4870 ca         1 R0T      -0.389900
     34 C9         -87.1780   -19.2110    90.6080 ca         1 R0T       0.005000
     35 F          -86.2050   -15.2290    91.7020 f          1 R0T      -0.108667
     36 F1         -87.5730   -15.2680    93.3840 f          1 R0T      -0.108667
     37 F2         -85.6310   -16.2290    93.5450 f          1 R0T      -0.108667
     38 N2         -82.9810   -21.1650    84.6690 nu         1 R0T      -0.935900
     39 N4         -90.0080   -19.7220    92.9500 na         1 R0T      -0.092300
     40 N5         -90.8920   -19.9720    94.9560 nc         1 R0T      -0.670000
     41 N6         -81.3800   -19.8640    85.8050 nb         1 R0T      -0.294000
     42 N7         -80.0700   -18.2030    89.4560 nb         1 R0T      -0.673000
     43 N8         -79.5110   -18.9060    84.6400 nb         1 R0T      -0.225000
     44 H6         -87.0420   -20.8370    89.3710 hn         1 R0T       0.156000
     45 H5         -83.8030   -19.4940    86.5860 ha         1 R0T       0.167000
     46 H7         -88.7100   -20.7140    90.8840 ha         1 R0T       0.125000
     47 H12        -91.4980   -18.3680    92.1010 h4         1 R0T       0.162000
     48 H15        -86.7560   -22.1810    88.2700 ha         1 R0T       0.114000
     49 H16        -86.1980   -23.8470    86.5730 ha         1 R0T       0.120000
     50 H20        -77.9490   -17.5800    86.2320 ha         1 R0T       0.137000
     51 H22        -78.6400   -17.0750    90.4590 h4         1 R0T       0.021100
     52 H1         -78.3840   -17.6730    81.9740 h1         1 R0T       0.061367
     53 H2         -77.4300   -19.1510    82.2990 h1         1 R0T       0.061367
     54 H          -78.1460   -18.8860    80.6820 h1         1 R0T       0.061367
     55 H3         -82.1210   -21.2150    81.7010 h4         1 R0T       0.047800
     56 H8         -88.8840   -20.6910    94.5410 h5         1 R0T       0.057100
     57 H11        -92.8710   -18.0040    95.5070 hc         1 R0T       0.045700
     58 H10        -93.6010   -18.2080    93.9030 hc         1 R0T       0.045700
     59 H9         -93.6460   -19.5410    95.0700 hc         1 R0T       0.045700
     60 H13        -88.8450   -17.4300    93.6650 ha         1 R0T       0.145000
     61 H14        -85.7770   -17.5450    90.6360 ha         1 R0T       0.174000
     62 H19        -83.2890   -24.0060    84.5980 hc         1 R0T       0.048367
     63 H17        -84.9240   -24.6490    84.7550 hc         1 R0T       0.048367
     64 H18        -84.5930   -23.3890    83.5620 hc         1 R0T       0.048367
     65 H21        -77.2450   -16.6440    88.4300 ha         1 R0T       0.125000
     66 H23        -81.3850   -19.2930    88.2940 h4         1 R0T       0.039100
     67 H4         -83.0580   -21.7610    83.8490 hn         1 R0T       0.505000
@<TRIPOS>BOND
     1     1    18 1   
     2     1    21 2   
     3     2     7 1   
     4     2    34 1   
     5     2    44 1   
     6     3    33 ar  
     7     3    38 1   
     8     3    41 ar  
     9     4     5 ar  
    10     4    14 ar  
    11     4    38 1   
    12     5     6 ar  
    13     5    45 1   
    14     6     7 1   
    15     6    12 ar  
    16     7    20 2   
    17     8    22 ar  
    18     8    34 ar  
    19     8    46 1   
    20     9    10 2   
    21     9    24 1   
    22     9    40 1   
    23    10    39 1   
    24    10    47 1   
    25    11    25 ar  
    26    11    26 1   
    27    11    27 ar  
    28    12    13 ar  
    29    12    48 1   
    30    13    14 ar  
    31    13    49 1   
    32    14    29 1   
    33    15    30 1   
    34    15    41 ar  
    35    15    43 ar  
    36    16    30 ar  
    37    16    31 ar  
    38    16    50 1   
    39    17    31 ar  
    40    17    42 ar  
    41    17    51 1   
    42    18    19 1   
    43    18    28 1   
    44    19    52 1   
    45    19    53 1   
    46    19    54 1   
    47    21    33 1   
    48    21    55 1   
    49    22    25 ar  
    50    22    39 1   
    51    23    39 1   
    52    23    40 2   
    53    23    56 1   
    54    24    57 1   
    55    24    58 1   
    56    24    59 1   
    57    25    60 1   
    58    26    35 1   
    59    26    36 1   
    60    26    37 1   
    61    27    34 ar  
    62    27    61 1   
    63    28    33 ar  
    64    28    43 ar  
    65    29    62 1   
    66    29    63 1   
    67    29    64 1   
    68    30    32 ar  
    69    31    65 1   
    70    32    42 ar  
    71    32    66 1   
    72    38    67 1   
@<TRIPOS>SUBSTRUCTURE
     1 R0T         1 TEMP              0 ****  ****    0 ROOT
