@<TRIPOS>MOLECULE
R0T
   67    72     1     0     0
SMALL
abcg2


@<TRIPOS>ATOM
      1 N1         -79.4850   -20.6890    81.9910 nc         1 R0T      -0.514100
      2 N3         -86.6840   -19.6750    89.1340 ns         1 R0T      -0.145000
      3 C4         -81.9560   -20.5260    84.6860 ca         1 R0T       0.463900
      4 C5         -84.2520   -21.2860    85.3100 ca         1 R0T       0.297000
      5 C6         -84.5760   -20.2970    86.2340 ca         1 R0T      -0.063000
      6 C7         -85.6830   -20.4350    87.0690 ca         1 R0T      -0.137600
      7 C8         -85.9260   -19.3310    88.0490 c          1 R0T       0.622700
      8 C10        -87.9180   -19.4900    91.1620 ca         1 R0T      -0.165000
      9 C13        -90.7090   -19.8190    94.7610 cc         1 R0T       0.252300
     10 C15        -90.2310   -18.8410    93.9340 cd         1 R0T      -0.212000
     11 C17        -87.2480   -16.8300    91.4450 ca         1 R0T      -0.142300
     12 C20        -86.5030   -21.5560    86.9430 ca         1 R0T      -0.103000
     13 C21        -86.2010   -22.5180    85.9900 ca         1 R0T      -0.094000
     14 C22        -85.0810   -22.4170    85.1690 ca         1 R0T      -0.095300
     15 C24        -80.5760   -19.2350    86.0300 cp         1 R0T       0.276500
     16 C26        -79.3380   -17.7280    87.6150 ca         1 R0T      -0.029000
     17 C28        -80.3120   -17.2590    89.7450 ca         1 R0T       0.353900
     18 N          -78.9200   -19.9580    82.9920 na         1 R0T      -0.031100
     19 C          -77.5970   -19.3900    82.8420 c3         1 R0T       0.084900
     20 O          -85.4570   -18.2090    87.8870 o          1 R0T      -0.563100
     21 C1         -80.6910   -21.0420    82.4040 cd         1 R0T       0.388800
     22 C11        -88.3730   -18.7730    92.2580 ca         1 R0T       0.040800
     23 C12        -89.0720   -20.7000    93.6630 cd         1 R0T       0.411400
     24 C14        -91.8490   -19.7550    95.7190 c3         1 R0T      -0.108400
     25 C16        -88.0390   -17.4290    92.4130 ca         1 R0T      -0.107000
     26 C18        -86.8320   -15.3950    91.6120 c3         1 R0T       0.345300
     27 C19        -86.7660   -17.5310    90.3450 ca         1 R0T      -0.094000
     28 C2         -79.7650   -19.8340    84.0420 ca         1 R0T       0.168500
     29 C23        -84.7700   -23.4910    84.1650 c3         1 R0T      -0.054800
     30 C25        -80.4450   -18.5270    87.3260 cp         1 R0T      -0.210500
     31 C27        -79.2700   -17.0860    88.8410 ca         1 R0T      -0.181000
     32 C29        -81.4380   -18.6340    88.3060 ca         1 R0T       0.384900
     33 C3         -80.9380   -20.5340    83.7020 ca         1 R0T      -0.389900
     34 C9         -87.1020   -18.8790    90.2040 ca         1 R0T       0.005000
     35 F          -86.7680   -14.7390    90.4340 f          1 R0T      -0.108667
     36 F1         -87.6710   -14.6990    92.4060 f          1 R0T      -0.108667
     37 F2         -85.6000   -15.2890    92.1720 f          1 R0T      -0.108667
     38 N2         -83.1260   -21.1860    84.4740 nu         1 R0T      -0.935900
     39 N4         -89.1840   -19.4100    93.2240 na         1 R0T      -0.092300
     40 N5         -89.9650   -20.9750    94.5840 nc         1 R0T      -0.670000
     41 N6         -81.7440   -19.8750    85.8250 nb         1 R0T      -0.294000
     42 N7         -81.3810   -18.0200    89.4880 nb         1 R0T      -0.673000
     43 N8         -79.5480   -19.1750    85.1880 nb         1 R0T      -0.225000
     44 H6         -86.9570   -20.6430    89.2000 hn         1 R0T       0.156000
     45 H5         -83.9610   -19.4210    86.3240 ha         1 R0T       0.167000
     46 H7         -88.2090   -20.5240    91.0330 ha         1 R0T       0.125000
     47 H12        -90.5490   -17.8280    93.7630 h4         1 R0T       0.162000
     48 H15        -87.3890   -21.6830    87.5510 ha         1 R0T       0.114000
     49 H16        -86.8470   -23.3810    85.8820 ha         1 R0T       0.120000
     50 H20        -78.5500   -17.6160    86.8840 ha         1 R0T       0.137000
     51 H22        -80.2880   -16.7690    90.7120 h4         1 R0T       0.021100
     52 H1         -77.5950   -18.6390    82.0520 h1         1 R0T       0.061367
     53 H2         -77.3220   -18.9260    83.7850 h1         1 R0T       0.061367
     54 H          -76.8830   -20.1770    82.5990 h1         1 R0T       0.061367
     55 H3         -81.3280   -21.6370    81.7690 h4         1 R0T       0.047800
     56 H8         -88.3080   -21.3650    93.2950 h5         1 R0T       0.057100
     57 H11        -91.5410   -20.0890    96.7120 hc         1 R0T       0.045700
     58 H10        -92.2290   -18.7370    95.8000 hc         1 R0T       0.045700
     59 H9         -92.6700   -20.4010    95.3960 hc         1 R0T       0.045700
     60 H13        -88.3830   -16.8750    93.2740 ha         1 R0T       0.145000
     61 H14        -86.1460   -17.0500    89.6090 ha         1 R0T       0.174000
     62 H19        -83.7820   -23.9250    84.3430 hc         1 R0T       0.048367
     63 H17        -85.5090   -24.2880    84.2180 hc         1 R0T       0.048367
     64 H18        -84.7720   -23.1010    83.1430 hc         1 R0T       0.048367
     65 H21        -78.4280   -16.4570    89.0960 ha         1 R0T       0.125000
     66 H23        -82.3100   -19.2450    88.1160 h4         1 R0T       0.039100
     67 H4         -83.1600   -21.7320    83.6270 hn         1 R0T       0.505000
@<TRIPOS>BOND
     1     1    18 1   
     2     1    21 2   
     3     2     7 1   
     4     2    34 1   
     5     2    44 1   
     6     3    33 ar  
     7     3    38 1   
     8     3    41 ar  
     9     4     5 ar  
    10     4    14 ar  
    11     4    38 1   
    12     5     6 ar  
    13     5    45 1   
    14     6     7 1   
    15     6    12 ar  
    16     7    20 2   
    17     8    22 ar  
    18     8    34 ar  
    19     8    46 1   
    20     9    10 2   
    21     9    24 1   
    22     9    40 1   
    23    10    39 1   
    24    10    47 1   
    25    11    25 ar  
    26    11    26 1   
    27    11    27 ar  
    28    12    13 ar  
    29    12    48 1   
    30    13    14 ar  
    31    13    49 1   
    32    14    29 1   
    33    15    30 1   
    34    15    41 ar  
    35    15    43 ar  
    36    16    30 ar  
    37    16    31 ar  
    38    16    50 1   
    39    17    31 ar  
    40    17    42 ar  
    41    17    51 1   
    42    18    19 1   
    43    18    28 1   
    44    19    52 1   
    45    19    53 1   
    46    19    54 1   
    47    21    33 1   
    48    21    55 1   
    49    22    25 ar  
    50    22    39 1   
    51    23    39 1   
    52    23    40 2   
    53    23    56 1   
    54    24    57 1   
    55    24    58 1   
    56    24    59 1   
    57    25    60 1   
    58    26    35 1   
    59    26    36 1   
    60    26    37 1   
    61    27    34 ar  
    62    27    61 1   
    63    28    33 ar  
    64    28    43 ar  
    65    29    62 1   
    66    29    63 1   
    67    29    64 1   
    68    30    32 ar  
    69    31    65 1   
    70    32    42 ar  
    71    32    66 1   
    72    38    67 1   
@<TRIPOS>SUBSTRUCTURE
     1 R0T         1 TEMP              0 ****  ****    0 ROOT
