@<TRIPOS>MOLECULE
R0U
   34    36     1     0     0
SMALL
No Charge or Current Charge


@<TRIPOS>ATOM
      1 C14        -14.9460    -9.0610    21.8000 ca         1 R0U      -0.073800
      2 C11        -12.7570    -5.5350    20.7720 ca         1 R0U       0.224100
      3 C10        -12.1970    -4.3160    20.3810 ca         1 R0U      -0.283000
      4 C12        -14.6940    -6.5960    21.5880 cc         1 R0U       0.042100
      5 C13        -14.1140    -7.8570    21.4990 cd         1 R0U      -0.198400
      6 C3         -11.0160    -4.2750    19.6370 ca         1 R0U       0.219100
      7 C1          -8.3510    -6.4070    18.0580 c3         1 R0U       0.143900
      8 C15        -14.3700   -10.2700    22.2600 ca         1 R0U      -0.051000
      9 C16        -15.1710   -11.3890    22.5510 ca         1 R0U      -0.172500
     10 C17        -16.5590   -11.3240    22.3930 ca         1 R0U       0.142100
     11 C18        -17.1530   -10.1360    21.9490 ca         1 R0U      -0.172500
     12 C19        -16.3560    -9.0130    21.6600 ca         1 R0U      -0.051000
     13 C2         -10.3480    -5.4660    19.2770 ca         1 R0U      -0.022900
     14 C20        -12.7550    -7.9870    20.9120 c          1 R0U       0.612900
     15 C21        -12.1160    -6.7310    20.4480 ca         1 R0U      -0.362600
     16 C22        -10.9140    -6.7090    19.6990 ca         1 R0U       0.259100
     17 O1          -9.1720    -5.3240    18.5320 os         1 R0U      -0.325100
     18 O10        -12.1880    -9.0600    20.7390 o          1 R0U      -0.588100
     19 O11        -10.3240    -7.9000    19.4000 oh         1 R0U      -0.527100
     20 O2         -10.5160    -3.0570    19.2700 oh         1 R0U      -0.506100
     21 O8         -13.8970    -5.4650    21.5450 os         1 R0U      -0.206200
     22 O9         -17.3240   -12.4150    22.6770 oh         1 R0U      -0.535100
     23 H1         -12.7000    -3.3940    20.6630 ha         1 R0U       0.139000
     24 H2         -15.6990    -6.3690    21.9250 h4         1 R0U       0.235000
     25 H3          -7.4960    -6.0110    17.4950 h1         1 R0U       0.038033
     26 H4          -7.9550    -6.9960    18.8940 h1         1 R0U       0.038033
     27 H5          -8.9170    -7.0640    17.3860 h1         1 R0U       0.038033
     28 H6         -13.3020   -10.3500    22.4370 ha         1 R0U       0.118500
     29 H7         -14.7090   -12.3060    22.9080 ha         1 R0U       0.124000
     30 H8         -18.2310   -10.0720    21.8210 ha         1 R0U       0.124000
     31 H9         -16.8510    -8.1180    21.2940 ha         1 R0U       0.118500
     32 H10        -10.8890    -8.5900    19.8370 ho         1 R0U       0.523000
     33 H11        -11.1160    -2.3640    19.6130 ho         1 R0U       0.470000
     34 H12        -18.2640   -12.1870    22.5120 ho         1 R0U       0.463000
@<TRIPOS>BOND
     1     1     5 1   
     2     1     8 ar  
     3     1    12 ar  
     4     2     3 ar  
     5     2    15 ar  
     6     2    21 1   
     7     3     6 ar  
     8     3    23 1   
     9     4     5 2   
    10     4    21 1   
    11     4    24 1   
    12     5    14 1   
    13     6    13 ar  
    14     6    20 1   
    15     7    17 1   
    16     7    25 1   
    17     7    26 1   
    18     7    27 1   
    19     8     9 ar  
    20     8    28 1   
    21     9    10 ar  
    22     9    29 1   
    23    10    11 ar  
    24    10    22 1   
    25    11    12 ar  
    26    11    30 1   
    27    12    31 1   
    28    13    16 ar  
    29    13    17 1   
    30    14    15 1   
    31    14    18 2   
    32    15    16 ar  
    33    16    19 1   
    34    19    32 1   
    35    20    33 1   
    36    22    34 1   
@<TRIPOS>SUBSTRUCTURE
     1 R0U         1 TEMP              0 ****  ****    0 ROOT
