@<TRIPOS>MOLECULE
R0U
   34    36     1     0     0
SMALL
abcg2


@<TRIPOS>ATOM
      1 C14        -14.9870    -9.0960    21.7450 ca         1 R0U      -0.073800
      2 C11        -12.6870    -5.6530    20.6810 ca         1 R0U       0.224100
      3 C10        -12.0340    -4.4660    20.3990 ca         1 R0U      -0.283000
      4 C12        -14.4140    -6.7130    21.8500 cc         1 R0U       0.042100
      5 C13        -14.1410    -7.9460    21.3650 cd         1 R0U      -0.198400
      6 C3         -10.9540    -4.5010    19.5220 ca         1 R0U       0.219100
      7 C1          -8.2030    -5.8760    18.6240 c3         1 R0U       0.143900
      8 C15        -14.4230   -10.3080    22.1590 ca         1 R0U      -0.051000
      9 C16        -15.2200   -11.3770    22.5370 ca         1 R0U      -0.172500
     10 C17        -16.6090   -11.2550    22.5040 ca         1 R0U       0.142100
     11 C18        -17.1890   -10.0580    22.0920 ca         1 R0U      -0.172500
     12 C19        -16.3800    -8.9940    21.7140 ca         1 R0U      -0.051000
     13 C2         -10.5330    -5.7050    18.9290 ca         1 R0U      -0.022900
     14 C20        -13.0170    -8.0940    20.4480 c          1 R0U       0.612900
     15 C21        -12.3020    -6.8790    20.1250 ca         1 R0U      -0.362600
     16 C22        -11.2000    -6.8860    19.2300 ca         1 R0U       0.259100
     17 O1          -9.5010    -5.7060    18.0290 os         1 R0U      -0.325100
     18 O10        -12.6920    -9.1960    19.9510 o          1 R0U      -0.588100
     19 O11        -10.7930    -8.0330    18.6650 oh         1 R0U      -0.527100
     20 O2         -10.2580    -3.3910    19.1940 oh         1 R0U      -0.506100
     21 O8         -13.7420    -5.5910    21.5420 os         1 R0U      -0.206200
     22 O9         -17.3490   -12.3370    22.8790 oh         1 R0U      -0.535100
     23 H1         -12.3590    -3.5380    20.8500 ha         1 R0U       0.139000
     24 H2         -15.2140    -6.5090    22.5480 h4         1 R0U       0.235000
     25 H3          -7.4840    -5.8610    17.8080 h1         1 R0U       0.038033
     26 H4          -7.9900    -5.0600    19.3180 h1         1 R0U       0.038033
     27 H5          -8.1460    -6.8310    19.1500 h1         1 R0U       0.038033
     28 H6         -13.3480   -10.4130    22.1940 ha         1 R0U       0.118500
     29 H7         -14.7770   -12.3100    22.8610 ha         1 R0U       0.124000
     30 H8         -18.2680    -9.9650    22.0560 ha         1 R0U       0.124000
     31 H9         -16.8420    -8.0750    21.3760 ha         1 R0U       0.118500
     32 H10        -11.4060    -8.7390    19.0160 ho         1 R0U       0.523000
     33 H11        -10.6110    -2.6230    19.6640 ho         1 R0U       0.470000
     34 H12        -18.2920   -12.1310    22.8120 ho         1 R0U       0.463000
@<TRIPOS>BOND
     1     1     5 1   
     2     1     8 ar  
     3     1    12 ar  
     4     2     3 ar  
     5     2    15 ar  
     6     2    21 1   
     7     3     6 ar  
     8     3    23 1   
     9     4     5 2   
    10     4    21 1   
    11     4    24 1   
    12     5    14 1   
    13     6    13 ar  
    14     6    20 1   
    15     7    17 1   
    16     7    25 1   
    17     7    26 1   
    18     7    27 1   
    19     8     9 ar  
    20     8    28 1   
    21     9    10 ar  
    22     9    29 1   
    23    10    11 ar  
    24    10    22 1   
    25    11    12 ar  
    26    11    30 1   
    27    12    31 1   
    28    13    16 ar  
    29    13    17 1   
    30    14    15 1   
    31    14    18 2   
    32    15    16 ar  
    33    16    19 1   
    34    19    32 1   
    35    20    33 1   
    36    22    34 1   
@<TRIPOS>SUBSTRUCTURE
     1 R0U         1 TEMP              0 ****  ****    0 ROOT
