@<TRIPOS>MOLECULE
R0W
   39    43     1     0     0
SMALL
No Charge or Current Charge


@<TRIPOS>ATOM
      1 C1         -44.2120   -31.4790    -0.0050 c          1 R0W       0.724000
      2 C2         -45.3900   -30.9830     0.9290 c5         1 R0W       0.059000
      3 C3         -44.8940   -30.8450     2.4110 c5         1 R0W       0.205800
      4 O1         -45.0930   -28.7530    -1.1970 oq         1 R0W      -0.473000
      5 O2         -44.4810   -32.0220    -1.0710 o          1 R0W      -0.694500
      6 C10        -50.4090   -30.3980     4.5940 ca         1 R0W      -0.176000
      7 C11        -49.0370   -30.2310     4.2930 ca         1 R0W      -0.048000
      8 C12        -46.5600   -28.3470     6.3190 ca         1 R0W       0.197500
      9 C13        -44.3660   -28.2440     5.7430 ca         1 R0W       0.188900
     10 C14        -46.6400   -29.2580     1.9130 c5         1 R0W       0.226800
     11 C15        -45.8370   -29.5110     0.6220 cy         1 R0W      -0.151000
     12 C16        -44.7710   -28.4410     0.2020 cy         1 R0W       0.160100
     13 C17        -46.4450   -29.1430    -0.7710 cy         1 R0W       0.160100
     14 C4         -45.7730   -29.3330     4.2670 ca         1 R0W       0.444900
     15 C5         -46.8370   -29.0730     5.1570 cp         1 R0W      -0.253000
     16 C6         -48.2570   -29.4230     5.1460 cp         1 R0W      -0.038000
     17 C7         -48.8350   -28.8620     6.2790 ca         1 R0W      -0.004200
     18 C8         -50.1830   -29.0130     6.6100 ca         1 R0W      -0.181000
     19 C9         -50.9740   -29.7870     5.7380 ca         1 R0W       0.170000
     20 F1         -52.2840   -29.9690     6.0110 f          1 R0W      -0.195000
     21 F2         -46.4700   -31.8900     0.8510 f          1 R0W      -0.282000
     22 N1         -45.9210   -29.9410     3.0060 nh         1 R0W      -0.753300
     23 N2         -47.7980   -28.2160     6.9610 na         1 R0W      -0.338300
     24 N3         -45.3290   -27.9220     6.6360 nb         1 R0W      -0.277000
     25 N4         -44.5250   -28.9170     4.5790 nb         1 R0W      -0.284000
     26 O3         -43.0500   -31.3910     0.3760 o          1 R0W      -0.694500
     27 H1         -44.8530   -31.8220     2.9130 h1         1 R0W       0.083700
     28 H2         -43.8940   -30.3920     2.4630 h1         1 R0W       0.083700
     29 H7         -43.3550   -27.9140     5.9790 h5         1 R0W       0.040100
     30 H9         -47.6620   -29.6470     1.8250 h1         1 R0W       0.052700
     31 H8         -46.7440   -28.1840     2.1250 h1         1 R0W       0.052700
     32 H11        -45.0330   -27.4050     0.4560 h1         1 R0W       0.062700
     33 H10        -43.7300   -28.6640     0.4620 h1         1 R0W       0.062700
     34 H13        -46.8490   -29.9800    -1.3520 h1         1 R0W       0.062700
     35 H12        -47.1320   -28.2870    -0.7640 h1         1 R0W       0.062700
     36 H3         -50.6050   -28.5650     7.5060 ha         1 R0W       0.128000
     37 H6         -47.9180   -27.7150     7.8330 hn         1 R0W       0.359000
     38 H4         -51.0320   -31.0120     3.9490 ha         1 R0W       0.127000
     39 H5         -48.5960   -30.7350     3.4390 ha         1 R0W       0.128000
@<TRIPOS>BOND
     1     1     2 1   
     2     1     5 1   
     3     1    26 1   
     4     2     3 1   
     5     2    11 1   
     6     2    21 1   
     7     3    22 1   
     8     3    27 1   
     9     3    28 1   
    10     4    12 1   
    11     4    13 1   
    12     6     7 ar  
    13     6    19 ar  
    14     6    38 1   
    15     7    16 ar  
    16     7    39 1   
    17     8    15 ar  
    18     8    23 1   
    19     8    24 ar  
    20     9    24 ar  
    21     9    25 ar  
    22     9    29 1   
    23    10    11 1   
    24    10    22 1   
    25    10    30 1   
    26    10    31 1   
    27    11    12 1   
    28    11    13 1   
    29    12    32 1   
    30    12    33 1   
    31    13    34 1   
    32    13    35 1   
    33    14    15 ar  
    34    14    22 1   
    35    14    25 ar  
    36    15    16 1   
    37    16    17 ar  
    38    17    18 ar  
    39    17    23 1   
    40    18    19 ar  
    41    18    36 1   
    42    19    20 1   
    43    23    37 1   
@<TRIPOS>SUBSTRUCTURE
     1 R0W         1 TEMP              0 ****  ****    0 ROOT
