@<TRIPOS>MOLECULE
R0W
   39    43     1     0     0
SMALL
abcg2


@<TRIPOS>ATOM
      1 C1         -43.6980   -30.6900    -0.1370 c          1 R0W       0.724000
      2 C2         -44.8460   -30.7960     0.9060 c5         1 R0W       0.059000
      3 C3         -44.4410   -30.6060     2.3550 c5         1 R0W       0.205800
      4 O1         -46.3730   -28.5070    -0.9440 oq         1 R0W      -0.473000
      5 O2         -43.7980   -31.4110    -1.1510 o          1 R0W      -0.694500
      6 C10        -50.5650   -29.6210     4.3640 ca         1 R0W      -0.176000
      7 C11        -49.2150   -29.8030     4.0930 ca         1 R0W      -0.048000
      8 C12        -46.4690   -28.7090     6.2930 ca         1 R0W       0.197500
      9 C13        -44.3040   -29.1450     6.0810 ca         1 R0W       0.188900
     10 C14        -46.7410   -29.9290     2.0500 c5         1 R0W       0.226800
     11 C15        -45.9920   -29.7920     0.7300 cy         1 R0W      -0.151000
     12 C16        -45.6180   -28.3610     0.2890 cy         1 R0W       0.160100
     13 C17        -46.8030   -29.8430    -0.5690 cy         1 R0W       0.160100
     14 C4         -45.6630   -29.7320     4.2980 ca         1 R0W       0.444900
     15 C5         -46.7910   -29.3030     5.0490 cp         1 R0W      -0.253000
     16 C6         -48.2470   -29.2910     4.9630 cp         1 R0W      -0.038000
     17 C7         -48.7030   -28.6340     6.1410 ca         1 R0W      -0.004200
     18 C8         -50.0480   -28.4350     6.4310 ca         1 R0W      -0.181000
     19 C9         -50.9460   -28.9370     5.5120 ca         1 R0W       0.170000
     20 F1         -52.2740   -28.7700     5.7520 f          1 R0W      -0.195000
     21 F2         -45.4500   -32.0810     0.8020 f          1 R0W      -0.282000
     22 N1         -45.6820   -30.1850     3.0260 nh         1 R0W      -0.753300
     23 N2         -47.6130   -28.2850     6.9070 na         1 R0W      -0.338300
     24 N3         -45.2530   -28.5980     6.8350 nb         1 R0W      -0.277000
     25 N4         -44.4380   -29.6910     4.8800 nb         1 R0W      -0.284000
     26 O3         -42.8010   -29.8560     0.1280 o          1 R0W      -0.694500
     27 H1         -44.0450   -31.5260     2.7840 h1         1 R0W       0.083700
     28 H2         -43.6800   -29.8330     2.4270 h1         1 R0W       0.083700
     29 H7         -43.2980   -29.1360     6.4900 h5         1 R0W       0.040100
     30 H9         -47.4330   -30.7720     1.9880 h1         1 R0W       0.052700
     31 H8         -47.2960   -29.0290     2.2990 h1         1 R0W       0.052700
     32 H11        -46.0310   -27.5750     0.9250 h1         1 R0W       0.062700
     33 H10        -44.5620   -28.1810     0.0980 h1         1 R0W       0.062700
     34 H13        -46.4810   -30.5920    -1.2920 h1         1 R0W       0.062700
     35 H12        -47.8860   -29.8950    -0.4300 h1         1 R0W       0.062700
     36 H3         -50.3800   -27.9310     7.3280 ha         1 R0W       0.128000
     37 H6         -47.6460   -27.8620     7.8220 hn         1 R0W       0.359000
     38 H4         -51.3230   -30.0110     3.6980 ha         1 R0W       0.127000
     39 H5         -48.9420   -30.3590     3.2120 ha         1 R0W       0.128000
@<TRIPOS>BOND
     1     1     2 1   
     2     1     5 1   
     3     1    26 1   
     4     2     3 1   
     5     2    11 1   
     6     2    21 1   
     7     3    22 1   
     8     3    27 1   
     9     3    28 1   
    10     4    12 1   
    11     4    13 1   
    12     6     7 ar  
    13     6    19 ar  
    14     6    38 1   
    15     7    16 ar  
    16     7    39 1   
    17     8    15 ar  
    18     8    23 1   
    19     8    24 ar  
    20     9    24 ar  
    21     9    25 ar  
    22     9    29 1   
    23    10    11 1   
    24    10    22 1   
    25    10    30 1   
    26    10    31 1   
    27    11    12 1   
    28    11    13 1   
    29    12    32 1   
    30    12    33 1   
    31    13    34 1   
    32    13    35 1   
    33    14    15 ar  
    34    14    22 1   
    35    14    25 ar  
    36    15    16 1   
    37    16    17 ar  
    38    17    18 ar  
    39    17    23 1   
    40    18    19 ar  
    41    18    36 1   
    42    19    20 1   
    43    23    37 1   
@<TRIPOS>SUBSTRUCTURE
     1 R0W         1 TEMP              0 ****  ****    0 ROOT
