@<TRIPOS>MOLECULE
R0X
   62    66     1     0     0
SMALL
No Charge or Current Charge


@<TRIPOS>ATOM
      1 N1          13.5830    25.2560     3.0320 nc         1 R0X      -0.516100
      2 N3           7.6700    20.1440     9.7570 ns         1 R0X      -0.142000
      3 C4          11.2330    22.9970     4.6650 ca         1 R0X       0.463900
      4 C5           9.2740    23.2720     6.3000 ca         1 R0X       0.293000
      5 C6           9.4450    22.1320     7.1110 ca         1 R0X      -0.062000
      6 C7           8.4540    21.7200     8.0330 ca         1 R0X      -0.134600
      7 C8           8.6910    20.4780     8.8750 c          1 R0X       0.621700
      8 C10          6.2730    18.9720    11.3370 ca         1 R0X      -0.246000
      9 C13          7.0710    17.0750    12.6220 ca         1 R0X      -0.255000
     10 C15         10.6210    16.2980    11.8170 c3         1 R0X       0.148400
     11 C17          7.2740    22.4940     8.1360 ca         1 R0X      -0.101000
     12 C21         12.1320    21.0260     3.8580 cp         1 R0X       0.275500
     13 C22         12.0860    19.5250     3.8030 cp         1 R0X      -0.209500
     14 C24         12.9190    17.3700     3.0320 ca         1 R0X      -0.183000
     15 C26         11.1010    18.7910     4.5170 ca         1 R0X       0.385900
     16 N           13.9550    23.9590     2.6670 na         1 R0X      -0.032100
     17 C           15.0970    23.6520     1.7900 c3         1 R0X       0.085900
     18 C1          12.5150    25.0790     3.8230 cd         1 R0X       0.388800
     19 C11          6.0400    17.9700    12.2880 ca         1 R0X       0.196100
     20 C12          4.4420    16.9200    13.8480 c3         1 R0X       0.148400
     21 C14          8.3240    17.1870    12.0090 ca         1 R0X       0.196100
     22 C16          8.5530    18.1990    11.0520 ca         1 R0X      -0.246000
     23 C18          7.1040    23.6420     7.3460 ca         1 R0X      -0.097000
     24 C19          8.0950    24.0420     6.4290 ca         1 R0X      -0.096300
     25 C2          13.1310    22.9970     3.2270 ca         1 R0X       0.169500
     26 C23         13.0170    18.7700     3.0420 ca         1 R0X      -0.030000
     27 C25         11.9050    16.7490     3.7740 ca         1 R0X       0.350900
     28 C3          12.2120    23.6790     3.9590 ca         1 R0X      -0.390900
     29 C9           7.5220    19.0970    10.7060 ca         1 R0X       0.050000
     30 N2          10.2690    23.6730     5.3940 nu         1 R0X      -0.935900
     31 N4          11.1900    21.6560     4.6020 nb         1 R0X      -0.291000
     32 N5          11.0060    17.4400     4.5060 nb         1 R0X      -0.672000
     33 N6          13.1120    21.6540     3.1610 nb         1 R0X      -0.228000
     34 O2           9.7220    19.8240     8.7560 o          1 R0X      -0.579100
     35 H6           6.8760    20.7680     9.7220 hn         1 R0X       0.153000
     36 H5          10.3690    21.5680     7.0390 ha         1 R0X       0.163000
     37 H7           5.4670    19.6570    11.0880 ha         1 R0X       0.141000
     38 H11          6.9220    16.2880    13.3550 ha         1 R0X       0.133000
     39 H14         11.2290    15.4940    12.2510 h1         1 R0X       0.044533
     40 H12         10.5840    16.1460    10.7300 h1         1 R0X       0.044533
     41 H13         11.1230    17.2520    12.0230 h1         1 R0X       0.044533
     42 H16          6.4780    22.2280     8.8270 ha         1 R0X       0.116000
     43 H18          7.9380    25.0750     4.5150 hc         1 R0X       0.047033
     44 H20          6.8670    25.7240     5.7580 hc         1 R0X       0.047033
     45 H19          8.5960    26.0760     5.8270 hc         1 R0X       0.047033
     46 H22         13.6180    16.7690     2.4580 ha         1 R0X       0.124000
     47 H24         10.3520    19.3000     5.1240 h4         1 R0X       0.043100
     48 H2          14.7430    23.1110     0.9040 h1         1 R0X       0.060700
     49 H           15.5880    24.5800     1.4750 h1         1 R0X       0.060700
     50 H1          15.8170    23.0270     2.3320 h1         1 R0X       0.060700
     51 H3          12.0250    25.9440     4.2520 h4         1 R0X       0.047800
     52 H9           3.4010    17.0500    14.1700 h1         1 R0X       0.044533
     53 H8           4.5460    15.9070    13.4380 h1         1 R0X       0.044533
     54 H10          5.0850    17.0100    14.7330 h1         1 R0X       0.044533
     55 H15          9.5270    18.2870    10.5900 ha         1 R0X       0.141000
     56 H17          6.1900    24.2230     7.4480 ha         1 R0X       0.118000
     57 H21         13.8050    19.2520     2.4650 ha         1 R0X       0.137000
     58 H23         11.8080    15.6640     3.7820 h4         1 R0X       0.019100
     59 H4          10.1950    24.6510     5.1260 hn         1 R0X       0.504000
     60 C20          7.8620    25.2970     5.5870 c3         1 R0X      -0.053800
     61 O1           9.2980    16.2830    12.3820 os         1 R0X      -0.352100
     62 O            4.7870    17.9090    12.8610 os         1 R0X      -0.352100
@<TRIPOS>BOND
     1     1    16 1   
     2     1    18 2   
     3     2     7 1   
     4     2    29 1   
     5     2    35 1   
     6     3    28 ar  
     7     3    30 1   
     8     3    31 ar  
     9     4     5 ar  
    10     4    24 ar  
    11     4    30 1   
    12     5     6 ar  
    13     5    36 1   
    14     6     7 1   
    15     6    11 ar  
    16     7    34 2   
    17     8    19 ar  
    18     8    29 ar  
    19     8    37 1   
    20     9    19 ar  
    21     9    21 ar  
    22     9    38 1   
    23    10    39 1   
    24    10    40 1   
    25    10    41 1   
    26    10    61 1   
    27    11    23 ar  
    28    11    42 1   
    29    12    13 1   
    30    12    31 ar  
    31    12    33 ar  
    32    13    15 ar  
    33    13    26 ar  
    34    14    26 ar  
    35    14    27 ar  
    36    14    46 1   
    37    15    32 ar  
    38    15    47 1   
    39    16    17 1   
    40    16    25 1   
    41    17    48 1   
    42    17    49 1   
    43    17    50 1   
    44    18    28 1   
    45    18    51 1   
    46    19    62 1   
    47    20    52 1   
    48    20    53 1   
    49    20    54 1   
    50    20    62 1   
    51    21    22 ar  
    52    21    61 1   
    53    22    29 ar  
    54    22    55 1   
    55    23    24 ar  
    56    23    56 1   
    57    24    60 1   
    58    25    28 ar  
    59    25    33 ar  
    60    26    57 1   
    61    27    32 ar  
    62    27    58 1   
    63    30    59 1   
    64    43    60 1   
    65    44    60 1   
    66    45    60 1   
@<TRIPOS>SUBSTRUCTURE
     1 R0X         1 TEMP              0 ****  ****    0 ROOT
