@<TRIPOS>MOLECULE
R0X
   62    66     1     0     0
SMALL
abcg2


@<TRIPOS>ATOM
      1 N1          13.4320    24.8510     2.5160 nc         1 R0X      -0.516100
      2 N3           7.7350    20.2090     9.5720 ns         1 R0X      -0.142000
      3 C4          11.1710    23.1040     4.8020 ca         1 R0X       0.463900
      4 C5           9.3760    23.5120     6.4910 ca         1 R0X       0.293000
      5 C6           9.5440    22.3890     7.2940 ca         1 R0X      -0.062000
      6 C7           8.5800    22.0320     8.2340 ca         1 R0X      -0.134600
      7 C8           8.8430    20.7970     9.0390 c          1 R0X       0.621700
      8 C10          6.3450    18.7590    10.8410 ca         1 R0X      -0.246000
      9 C13          7.2360    16.8820    12.0810 ca         1 R0X      -0.255000
     10 C15         10.8520    16.7010    11.6560 c3         1 R0X       0.148400
     11 C17          7.4550    22.8410     8.3990 ca         1 R0X      -0.101000
     12 C21         11.9690    21.0170     4.1850 cp         1 R0X       0.275500
     13 C22         11.8640    19.5540     4.3960 cp         1 R0X      -0.209500
     14 C24         12.5080    17.2950     3.9110 ca         1 R0X      -0.183000
     15 C26         10.9750    19.0260     5.3390 ca         1 R0X       0.385900
     16 N           13.6840    23.5210     2.3680 na         1 R0X      -0.032100
     17 C           14.6860    23.0550     1.4330 c3         1 R0X       0.085900
     18 C1          12.4770    24.9650     3.4240 cd         1 R0X       0.388800
     19 C11          6.1560    17.6570    11.6760 ca         1 R0X       0.196100
     20 C12          4.6090    16.2980    12.8960 c3         1 R0X       0.148400
     21 C14          8.5160    17.2290    11.6370 ca         1 R0X       0.196100
     22 C16          8.7320    18.3230    10.8050 ca         1 R0X      -0.246000
     23 C18          7.3090    23.9790     7.6190 ca         1 R0X      -0.097000
     24 C19          8.2440    24.3350     6.6510 ca         1 R0X      -0.096300
     25 C2          12.8910    22.7820     3.1800 ca         1 R0X       0.169500
     26 C23         12.6450    18.6530     3.6710 ca         1 R0X      -0.030000
     27 C25         11.5950    16.8740     4.8710 ca         1 R0X       0.350900
     28 C3          12.0840    23.6880     3.8910 ca         1 R0X      -0.390900
     29 C9           7.6270    19.0870    10.4100 ca         1 R0X       0.050000
     30 N2          10.3320    23.8880     5.5290 nu         1 R0X      -0.935900
     31 N4          11.1370    21.7800     4.9220 nb         1 R0X      -0.291000
     32 N5          10.8380    17.7200     5.5770 nb         1 R0X      -0.672000
     33 N6          12.8660    21.4480     3.3010 nb         1 R0X      -0.228000
     34 O2           9.9830    20.3580     9.1810 o          1 R0X      -0.579100
     35 H6           6.8510    20.6260     9.3270 hn         1 R0X       0.153000
     36 H5          10.4230    21.7770     7.1880 ha         1 R0X       0.163000
     37 H7           5.4890    19.3500    10.5400 ha         1 R0X       0.141000
     38 H11          7.1240    16.0230    12.7240 ha         1 R0X       0.133000
     39 H14         11.4750    15.9380    12.1170 h1         1 R0X       0.044533
     40 H12         10.9410    16.6410    10.5690 h1         1 R0X       0.044533
     41 H13         11.1720    17.6900    11.9940 h1         1 R0X       0.044533
     42 H16          6.7040    22.6190     9.1450 ha         1 R0X       0.116000
     43 H18          8.0700    25.3150     4.7410 hc         1 R0X       0.047033
     44 H20          7.0820    26.0210     6.0270 hc         1 R0X       0.047033
     45 H19          8.8210    26.3070     5.9870 hc         1 R0X       0.047033
     46 H22         13.0980    16.5700     3.3660 ha         1 R0X       0.124000
     47 H24         10.3540    19.6950     5.9190 h4         1 R0X       0.043100
     48 H2          14.4290    23.3720     0.4220 h1         1 R0X       0.060700
     49 H           15.6630    23.4540     1.7030 h1         1 R0X       0.060700
     50 H1          14.7100    21.9690     1.4800 h1         1 R0X       0.060700
     51 H3          12.1130    25.9400     3.7080 h4         1 R0X       0.047800
     52 H9           3.5350    16.2970    13.0640 h1         1 R0X       0.044533
     53 H8           4.9080    15.3630    12.4170 h1         1 R0X       0.044533
     54 H10          5.1300    16.4010    13.8510 h1         1 R0X       0.044533
     55 H15          9.7120    18.5890    10.4580 ha         1 R0X       0.141000
     56 H17          6.4400    24.6110     7.7580 ha         1 R0X       0.118000
     57 H21         13.3440    19.0200     2.9330 ha         1 R0X       0.137000
     58 H23         11.4670    15.8180     5.0820 h4         1 R0X       0.019100
     59 H4          10.3510    24.8660     5.2870 hn         1 R0X       0.504000
     60 C20          8.0420    25.5590     5.8060 c3         1 R0X      -0.053800
     61 O1           9.5180    16.4210    12.0780 os         1 R0X      -0.352100
     62 O            4.8700    17.4160    12.0480 os         1 R0X      -0.352100
@<TRIPOS>BOND
     1     1    16 1   
     2     1    18 2   
     3     2     7 1   
     4     2    29 1   
     5     2    35 1   
     6     3    28 ar  
     7     3    30 1   
     8     3    31 ar  
     9     4     5 ar  
    10     4    24 ar  
    11     4    30 1   
    12     5     6 ar  
    13     5    36 1   
    14     6     7 1   
    15     6    11 ar  
    16     7    34 2   
    17     8    19 ar  
    18     8    29 ar  
    19     8    37 1   
    20     9    19 ar  
    21     9    21 ar  
    22     9    38 1   
    23    10    39 1   
    24    10    40 1   
    25    10    41 1   
    26    10    61 1   
    27    11    23 ar  
    28    11    42 1   
    29    12    13 1   
    30    12    31 ar  
    31    12    33 ar  
    32    13    15 ar  
    33    13    26 ar  
    34    14    26 ar  
    35    14    27 ar  
    36    14    46 1   
    37    15    32 ar  
    38    15    47 1   
    39    16    17 1   
    40    16    25 1   
    41    17    48 1   
    42    17    49 1   
    43    17    50 1   
    44    18    28 1   
    45    18    51 1   
    46    19    62 1   
    47    20    52 1   
    48    20    53 1   
    49    20    54 1   
    50    20    62 1   
    51    21    22 ar  
    52    21    61 1   
    53    22    29 ar  
    54    22    55 1   
    55    23    24 ar  
    56    23    56 1   
    57    24    60 1   
    58    25    28 ar  
    59    25    33 ar  
    60    26    57 1   
    61    27    32 ar  
    62    27    58 1   
    63    30    59 1   
    64    43    60 1   
    65    44    60 1   
    66    45    60 1   
@<TRIPOS>SUBSTRUCTURE
     1 R0X         1 TEMP              0 ****  ****    0 ROOT
