@<TRIPOS>MOLECULE
R0Y
   72    76     1     0     0
SMALL
abcg2


@<TRIPOS>ATOM
      1 C02         -4.4240    28.3810    -4.1440 ca         1 R0Y       0.419900
      2 C03         -4.6180    29.6250    -4.7960 ca         1 R0Y      -0.312300
      3 C04         -5.4800    29.5780    -5.8660 ca         1 R0Y       0.178900
      4 C06         -5.8560    27.3730    -5.5960 ca         1 R0Y       0.402900
      5 C09         -3.9240    30.8690    -4.3030 c3         1 R0Y       0.046200
      6 C10         -4.2590    32.1020    -5.0930 ca         1 R0Y      -0.053300
      7 C11         -3.5620    32.3920    -6.2650 ca         1 R0Y      -0.182000
      8 C12         -3.8910    33.5100    -7.0210 ca         1 R0Y       0.116100
      9 C15         -4.9300    34.3590    -6.6050 ca         1 R0Y       0.090100
     10 C16         -5.6330    34.0820    -5.4310 ca         1 R0Y      -0.042800
     11 C17         -6.7200    34.8900    -4.8850 ce         1 R0Y      -0.105200
     12 C18         -7.1980    36.0790    -5.2730 cf         1 R0Y      -0.251200
     13 C19         -8.3430    36.6580    -4.5270 c          1 R0Y       0.630300
     14 C22         -7.8420    39.8980    -5.5900 ce         1 R0Y       0.404800
     15 C23         -8.5840    40.6370    -4.5890 ca         1 R0Y      -0.174900
     16 C24         -9.6100    39.9660    -3.9440 ca         1 R0Y      -0.072300
     17 C25         -9.9660    38.6210    -4.5310 c6         1 R0Y       0.191000
     18 C29        -10.2850    40.5800    -2.8970 ca         1 R0Y      -0.157000
     19 C30         -9.9360    41.8640    -2.5020 ca         1 R0Y       0.128100
     20 C32        -11.5770    41.9150    -0.7960 c3         1 R0Y       0.144900
     21 C33         -8.9020    42.5570    -3.1740 ca         1 R0Y       0.109100
     22 C35         -7.6400    44.5450    -3.3700 c3         1 R0Y       0.144900
     23 C36         -8.2320    41.9360    -4.2100 ca         1 R0Y      -0.141000
     24 C38         -5.2770    32.9440    -4.6920 ca         1 R0Y      -0.118000
     25 C40         -6.0960    35.2090    -8.4470 c3         1 R0Y       0.148900
     26 N01         -3.6250    28.2790    -3.0670 nv         1 R0Y      -1.078900
     27 N05         -6.1080    28.4810    -6.2910 nb         1 R0Y      -0.276000
     28 N07         -6.5140    26.2460    -5.9650 nv         1 R0Y      -1.051900
     29 N08         -5.0400    27.2750    -4.5470 nb         1 R0Y      -0.330000
     30 N20         -8.6990    37.9430    -4.8620 n          1 R0Y      -0.195800
     31 N21         -7.8530    38.6230    -5.6910 n2         1 R0Y      -0.441300
     32 O13         -3.2720    33.8660    -8.1590 os         1 R0Y      -0.328100
     33 O34         -8.6550    43.8000    -2.7280 os         1 R0Y      -0.319100
     34 O37         -8.9320    36.0350    -3.6600 o          1 R0Y      -0.587100
     35 O39         -5.2130    35.4530    -7.3560 os         1 R0Y      -0.347100
     36 C26        -10.9750    37.8460    -3.7370 cx         1 R0Y      -0.115700
     37 C27        -11.8570    36.8710    -4.4380 cx         1 R0Y      -0.125400
     38 C28        -12.4170    38.1860    -3.9930 cx         1 R0Y      -0.125400
     39 H1          -5.6890    30.4830    -6.4280 h4         1 R0Y       0.023100
     40 H2          -2.8390    30.7170    -4.3180 hc         1 R0Y       0.045200
     41 H3          -4.1880    31.0370    -3.2540 hc         1 R0Y       0.045200
     42 H4          -2.7660    31.7290    -6.5780 ha         1 R0Y       0.120000
     43 H5          -1.9080    33.4840    -9.5870 h1         1 R0Y       0.041700
     44 H6          -1.4030    32.9600    -7.9710 h1         1 R0Y       0.041700
     45 H7          -2.6130    32.0220    -8.8740 h1         1 R0Y       0.041700
     46 H8          -7.1910    34.4360    -4.0170 ha         1 R0Y       0.189000
     47 H9          -6.7850    36.6330    -6.0970 ha         1 R0Y       0.223000
     48 H10         -7.1570    40.4160    -6.2510 h4         1 R0Y       0.035800
     49 H12        -10.4290    38.8190    -5.5120 h1         1 R0Y       0.052700
     50 H13        -11.0900    40.0530    -2.4040 ha         1 R0Y       0.131000
     51 H14        -11.9060    42.6260    -0.0430 h1         1 R0Y       0.042367
     52 H15        -12.4210    41.6730    -1.4470 h1         1 R0Y       0.042367
     53 H16        -11.2420    41.0020    -0.2960 h1         1 R0Y       0.042367
     54 H17         -7.6110    45.5140    -2.8800 h1         1 R0Y       0.041033
     55 H18         -6.6600    44.0700    -3.2710 h1         1 R0Y       0.041033
     56 H19         -7.8530    44.6920    -4.4330 h1         1 R0Y       0.041033
     57 H20         -7.4270    42.4350    -4.7340 ha         1 R0Y       0.123000
     58 H21         -5.8200    32.7230    -3.7790 ha         1 R0Y       0.123000
     59 H22         -6.2930    36.1690    -8.9180 h1         1 R0Y       0.038033
     60 H23         -5.6490    34.5390    -9.1850 h1         1 R0Y       0.038033
     61 H24         -7.0420    34.7820    -8.1070 h1         1 R0Y       0.038033
     62 H25         -3.4280    27.3660    -2.6940 hn         1 R0Y       0.490500
     63 H26         -2.9850    29.0140    -2.8210 hn         1 R0Y       0.490500
     64 H27         -6.9340    26.2300    -6.8780 hn         1 R0Y       0.486000
     65 H28         -6.1680    25.3670    -5.6230 hn         1 R0Y       0.486000
     66 H30        -10.7110    37.6250    -2.7110 hc         1 R0Y       0.102700
     67 H31        -11.6990    36.7190    -5.4990 hc         1 R0Y       0.073950
     68 H32        -12.1460    35.9770    -3.9020 hc         1 R0Y       0.073950
     69 H33        -13.0880    38.2020    -3.1440 hc         1 R0Y       0.073950
     70 H34        -12.6420    38.9290    -4.7500 hc         1 R0Y       0.073950
     71 O31        -10.5270    42.5410    -1.5080 os         1 R0Y      -0.319100
     72 C14         -2.2480    33.0300    -8.6600 c3         1 R0Y       0.145900
@<TRIPOS>BOND
     1     1     2 ar  
     2     1    26 1   
     3     1    29 ar  
     4     2     3 ar  
     5     2     5 1   
     6     3    27 ar  
     7     3    39 1   
     8     4    27 ar  
     9     4    28 1   
    10     4    29 ar  
    11     5     6 1   
    12     5    40 1   
    13     5    41 1   
    14     6     7 ar  
    15     6    24 ar  
    16     7     8 ar  
    17     7    42 1   
    18     8     9 ar  
    19     8    32 1   
    20     9    10 ar  
    21     9    35 1   
    22    10    11 1   
    23    10    24 ar  
    24    11    12 2   
    25    11    46 1   
    26    12    13 1   
    27    12    47 1   
    28    13    30 1   
    29    13    34 2   
    30    14    15 1   
    31    14    31 2   
    32    14    48 1   
    33    15    16 ar  
    34    15    23 ar  
    35    16    17 1   
    36    16    18 ar  
    37    17    30 1   
    38    17    36 1   
    39    17    49 1   
    40    18    19 ar  
    41    18    50 1   
    42    19    21 ar  
    43    19    71 1   
    44    20    51 1   
    45    20    52 1   
    46    20    53 1   
    47    20    71 1   
    48    21    23 ar  
    49    21    33 1   
    50    22    33 1   
    51    22    54 1   
    52    22    55 1   
    53    22    56 1   
    54    23    57 1   
    55    24    58 1   
    56    25    35 1   
    57    25    59 1   
    58    25    60 1   
    59    25    61 1   
    60    26    62 1   
    61    26    63 1   
    62    28    64 1   
    63    28    65 1   
    64    30    31 1   
    65    32    72 1   
    66    36    37 1   
    67    36    38 1   
    68    36    66 1   
    69    37    38 1   
    70    37    67 1   
    71    37    68 1   
    72    38    69 1   
    73    38    70 1   
    74    43    72 1   
    75    44    72 1   
    76    45    72 1   
@<TRIPOS>SUBSTRUCTURE
     1 R0Y         1 TEMP              0 ****  ****    0 ROOT
