@<TRIPOS>MOLECULE
R0Y
   72    76     1     0     0
SMALL
No Charge or Current Charge


@<TRIPOS>ATOM
      1 C02         -4.2660    29.3860    -3.2300 ca         1 R0Y       0.419900
      2 C03         -4.2860    30.0760    -4.4550 ca         1 R0Y      -0.312300
      3 C04         -5.0840    29.5090    -5.4710 ca         1 R0Y       0.178900
      4 C06         -5.6920    27.8340    -4.0530 ca         1 R0Y       0.402900
      5 C09         -3.4870    31.3590    -4.7110 c3         1 R0Y       0.046200
      6 C10         -4.1970    32.3160    -5.6640 ca         1 R0Y      -0.053300
      7 C11         -3.7450    32.4790    -6.9830 ca         1 R0Y      -0.182000
      8 C12         -4.4080    33.3520    -7.8780 ca         1 R0Y       0.116100
      9 C15         -5.5540    34.0830    -7.4250 ca         1 R0Y       0.090100
     10 C16         -5.9920    33.9190    -6.0840 ca         1 R0Y      -0.042800
     11 C17         -7.1740    34.6470    -5.5290 ce         1 R0Y      -0.105200
     12 C18         -7.5640    35.9390    -5.7450 cf         1 R0Y      -0.251200
     13 C19         -8.7680    36.5770    -5.1240 c          1 R0Y       0.630300
     14 C22         -7.5840    39.7620    -5.4170 ce         1 R0Y       0.404800
     15 C23         -8.3170    40.3490    -4.2500 ca         1 R0Y      -0.174900
     16 C24         -9.6020    39.8540    -3.9360 ca         1 R0Y      -0.072300
     17 C25        -10.1820    38.7570    -4.8580 c6         1 R0Y       0.191000
     18 C29        -10.3080    40.3950    -2.8400 ca         1 R0Y      -0.157000
     19 C30         -9.7290    41.4140    -2.0490 ca         1 R0Y       0.128100
     20 C32        -11.7120    41.5370    -0.5670 c3         1 R0Y       0.144900
     21 C33         -8.4370    41.8990    -2.3610 ca         1 R0Y       0.109100
     22 C35         -6.5890    43.4540    -1.8060 c3         1 R0Y       0.144900
     23 C36         -7.7360    41.3620    -3.4640 ca         1 R0Y      -0.141000
     24 C38         -5.3180    33.0330    -5.2270 ca         1 R0Y      -0.118000
     25 C40         -6.0390    35.2360    -9.6080 c3         1 R0Y       0.148900
     26 N01         -3.5240    29.7860    -2.1700 nv         1 R0Y      -1.078900
     27 N05         -5.7930    28.3820    -5.2700 nb         1 R0Y      -0.276000
     28 N07         -6.3990    26.7000    -3.8460 nv         1 R0Y      -1.051900
     29 N08         -4.9650    28.2660    -3.0200 nb         1 R0Y      -0.330000
     30 N20         -9.0410    37.9540    -5.4180 n          1 R0Y      -0.195800
     31 N21         -8.0890    38.7450    -6.0550 n2         1 R0Y      -0.441300
     32 O13         -3.9480    33.4880    -9.1790 os         1 R0Y      -0.328100
     33 O34         -7.8950    42.8980    -1.5670 os         1 R0Y      -0.319100
     34 O37         -9.4760    35.9060    -4.3820 o          1 R0Y      -0.587100
     35 O39         -6.3070    34.9400    -8.2260 os         1 R0Y      -0.347100
     36 C26        -11.4000    37.9890    -4.2950 cx         1 R0Y      -0.115700
     37 C27        -12.3420    37.2650    -5.2320 cx         1 R0Y      -0.125400
     38 C28        -12.8030    38.5120    -4.5140 cx         1 R0Y      -0.125400
     39 H1          -5.1590    29.9550    -6.4610 h4         1 R0Y       0.023100
     40 H2          -2.4970    31.0960    -5.1040 hc         1 R0Y       0.045200
     41 H3          -3.2970    31.8940    -3.7730 hc         1 R0Y       0.045200
     42 H4          -2.8770    31.9090    -7.2980 ha         1 R0Y       0.120000
     43 H5          -2.6360    33.0440   -10.7430 h1         1 R0Y       0.041700
     44 H6          -1.9020    33.0290    -9.1260 h1         1 R0Y       0.041700
     45 H7          -2.9680    31.6920    -9.6420 h1         1 R0Y       0.041700
     46 H8          -7.7650    34.0450    -4.8340 ha         1 R0Y       0.189000
     47 H9          -6.9680    36.5550    -6.4110 ha         1 R0Y       0.223000
     48 H10         -6.6550    40.2390    -5.7360 h4         1 R0Y       0.035800
     49 H12        -10.5880    39.3060    -5.7210 h1         1 R0Y       0.052700
     50 H13        -11.3010    40.0240    -2.6130 ha         1 R0Y       0.131000
     51 H14        -12.0440    42.1020     0.3130 h1         1 R0Y       0.042367
     52 H15        -12.4370    41.7070    -1.3730 h1         1 R0Y       0.042367
     53 H16        -11.7160    40.4710    -0.3070 h1         1 R0Y       0.042367
     54 H17         -6.3640    44.2260    -1.0600 h1         1 R0Y       0.041033
     55 H18         -5.8160    42.6780    -1.7370 h1         1 R0Y       0.041033
     56 H19         -6.5390    43.9170    -2.8000 h1         1 R0Y       0.041033
     57 H20         -6.7430    41.7190    -3.7240 ha         1 R0Y       0.123000
     58 H21         -5.6650    32.9050    -4.2040 ha         1 R0Y       0.123000
     59 H22         -6.7860    35.9420    -9.9930 h1         1 R0Y       0.038033
     60 H23         -5.0510    35.6980    -9.7260 h1         1 R0Y       0.038033
     61 H24         -6.0920    34.3280   -10.2220 h1         1 R0Y       0.038033
     62 H25         -3.4000    29.1280    -1.4050 hn         1 R0Y       0.490500
     63 H26         -2.7710    30.4500    -2.3240 hn         1 R0Y       0.490500
     64 H27         -6.7770    26.2130    -4.6550 hn         1 R0Y       0.486000
     65 H28         -6.1810    26.1350    -3.0300 hn         1 R0Y       0.486000
     66 H30        -11.2030    37.5240    -3.3310 hc         1 R0Y       0.102700
     67 H31        -12.1540    37.3350    -6.3010 hc         1 R0Y       0.073950
     68 H32        -12.7450    36.3100    -4.9030 hc         1 R0Y       0.073950
     69 H33        -13.5190    38.3950    -3.7040 hc         1 R0Y       0.073950
     70 H34        -12.9280    39.4180    -5.1030 hc         1 R0Y       0.073950
     71 O31        -10.3970    41.9620    -0.9640 os         1 R0Y      -0.319100
     72 C14         -2.8070    32.7770    -9.6930 c3         1 R0Y       0.145900
@<TRIPOS>BOND
     1     1     2 ar  
     2     1    26 1   
     3     1    29 ar  
     4     2     3 ar  
     5     2     5 1   
     6     3    27 ar  
     7     3    39 1   
     8     4    27 ar  
     9     4    28 1   
    10     4    29 ar  
    11     5     6 1   
    12     5    40 1   
    13     5    41 1   
    14     6     7 ar  
    15     6    24 ar  
    16     7     8 ar  
    17     7    42 1   
    18     8     9 ar  
    19     8    32 1   
    20     9    10 ar  
    21     9    35 1   
    22    10    11 1   
    23    10    24 ar  
    24    11    12 2   
    25    11    46 1   
    26    12    13 1   
    27    12    47 1   
    28    13    30 1   
    29    13    34 2   
    30    14    15 1   
    31    14    31 2   
    32    14    48 1   
    33    15    16 ar  
    34    15    23 ar  
    35    16    17 1   
    36    16    18 ar  
    37    17    30 1   
    38    17    36 1   
    39    17    49 1   
    40    18    19 ar  
    41    18    50 1   
    42    19    21 ar  
    43    19    71 1   
    44    20    51 1   
    45    20    52 1   
    46    20    53 1   
    47    20    71 1   
    48    21    23 ar  
    49    21    33 1   
    50    22    33 1   
    51    22    54 1   
    52    22    55 1   
    53    22    56 1   
    54    23    57 1   
    55    24    58 1   
    56    25    35 1   
    57    25    59 1   
    58    25    60 1   
    59    25    61 1   
    60    26    62 1   
    61    26    63 1   
    62    28    64 1   
    63    28    65 1   
    64    30    31 1   
    65    32    72 1   
    66    36    37 1   
    67    36    38 1   
    68    36    66 1   
    69    37    38 1   
    70    37    67 1   
    71    37    68 1   
    72    38    69 1   
    73    38    70 1   
    74    43    72 1   
    75    44    72 1   
    76    45    72 1   
@<TRIPOS>SUBSTRUCTURE
     1 R0Y         1 TEMP              0 ****  ****    0 ROOT
