@<TRIPOS>MOLECULE
R0Z
   75    80     1     0     0
SMALL
No Charge or Current Charge


@<TRIPOS>ATOM
      1 C10        162.1530   165.3870   159.0000 ca         1 R0Z       0.397000
      2 C15        162.9970   164.1490   156.6210 ca         1 R0Z      -0.187000
      3 C17        162.2940   163.9760   158.9580 ca         1 R0Z      -0.243600
      4 C21        162.5800   160.7990   161.1100 ca         1 R0Z      -0.036000
      5 C22        163.6670   159.9080   161.1550 ca         1 R0Z      -0.145000
      6 C24        162.6660   158.7390   163.0490 ca         1 R0Z      -0.095300
      7 C26        161.5040   160.6130   162.0010 ca         1 R0Z      -0.145000
      8 C28        164.0170   157.8680   165.0940 c3         1 R0Z       0.187800
      9 C01        160.7430   167.5080   163.9640 c3         1 R0Z       0.152900
     10 C03        161.3830   167.9220   161.6030 ca         1 R0Z       0.087100
     11 C04        161.3300   169.3240   161.7740 ca         1 R0Z      -0.147000
     12 C05        161.5980   170.1740   160.6890 ca         1 R0Z      -0.121000
     13 C06        161.9190   169.6370   159.4330 ca         1 R0Z      -0.059000
     14 C07        161.9770   168.2380   159.2530 ca         1 R0Z      -0.195600
     15 C08        161.7120   167.3820   160.3310 ca         1 R0Z       0.309000
     16 C11        162.4430   166.1600   157.8640 ca         1 R0Z      -0.249600
     17 C12        162.3220   167.6430   157.9330 c          1 R0Z       0.604300
     18 C14        162.8620   165.5400   156.6720 ca         1 R0Z       0.016000
     19 C16        162.7210   163.3700   157.7510 ca         1 R0Z      -0.019000
     20 C18        162.0080   163.1100   160.1720 c          1 R0Z       0.628700
     21 C23        163.7140   158.8870   162.1210 ca         1 R0Z      -0.077000
     22 C25        161.5450   159.5870   162.9590 ca         1 R0Z      -0.077000
     23 C27        162.7650   157.7170   164.1820 c3         1 R0Z      -0.026100
     24 C30        165.1730   158.9830   166.9690 c6         1 R0Z       0.181800
     25 C31        165.0840   160.1070   168.0290 c6         1 R0Z      -0.022100
     26 C32        164.8710   161.4910   167.4130 ca         1 R0Z      -0.092300
     27 C33        165.1210   162.6510   168.1660 ca         1 R0Z      -0.091000
     28 C34        164.9190   163.9340   167.6220 ca         1 R0Z       0.063100
     29 C35        164.4470   164.0560   166.2780 ca         1 R0Z       0.122100
     30 C36        164.1930   162.8790   165.5350 ca         1 R0Z      -0.182000
     31 C37        164.3980   161.6060   166.0950 ca         1 R0Z      -0.037300
     32 C38        164.1160   160.3600   165.2460 c6         1 R0Z       0.218100
     33 C40        163.7860   165.4780   164.3490 c3         1 R0Z       0.146900
     34 C42        165.0660   166.3830   168.1290 c3         1 R0Z       0.148900
     35 N09        161.7440   166.0010   160.1720 na         1 R0Z      -0.766000
     36 N20        162.6200   161.8610   160.1680 ns         1 R0Z      -0.133000
     37 N29        164.0590   159.0630   165.9880 n3         1 R0Z      -0.742600
     38 O02        161.1170   167.0500   162.6510 os         1 R0Z      -0.347100
     39 O13        162.5050   168.3450   156.9440 o          1 R0Z      -0.556100
     40 O19        161.2860   163.4810   161.0920 o          1 R0Z      -0.609100
     41 O41        165.2080   164.9940   168.4750 os         1 R0Z      -0.355100
     42 H1         163.3190   163.6700   155.6980 ha         1 R0Z       0.124000
     43 H2         164.4990   160.0260   160.4640 ha         1 R0Z       0.127000
     44 H3         160.6330   161.2610   161.9700 ha         1 R0Z       0.127000
     45 H4         164.0550   156.9660   165.7190 h1         1 R0Z       0.031700
     46 H5         164.9180   157.8420   164.4660 h1         1 R0Z       0.031700
     47 H6         160.5740   166.6530   164.6300 h1         1 R0Z       0.048700
     48 H7         161.5360   168.1280   164.4020 h1         1 R0Z       0.048700
     49 H8         159.8170   168.0950   163.9240 h1         1 R0Z       0.048700
     50 H9         161.0830   169.7700   162.7330 ha         1 R0Z       0.122000
     51 H10        161.5560   171.2530   160.8210 ha         1 R0Z       0.118000
     52 H11        162.1250   170.3110   158.6030 ha         1 R0Z       0.137000
     53 H12        163.0880   166.1300   155.7850 ha         1 R0Z       0.139000
     54 H13        162.8270   162.2910   157.6640 ha         1 R0Z       0.112000
     55 H14        164.5810   158.2310   162.1630 ha         1 R0Z       0.118000
     56 H15        160.7200   159.4780   163.6600 ha         1 R0Z       0.118000
     57 H16        161.8710   157.7510   164.8150 hc         1 R0Z       0.049700
     58 H17        162.7840   156.7110   163.7460 hc         1 R0Z       0.049700
     59 H18        165.1630   158.0130   167.4880 h1         1 R0Z       0.030700
     60 H19        166.1390   159.0590   166.4470 h1         1 R0Z       0.030700
     61 H20        164.2520   159.8900   168.7120 hc         1 R0Z       0.052700
     62 H21        165.9960   160.1000   168.6410 hc         1 R0Z       0.052700
     63 H22        165.4780   162.5600   169.1890 ha         1 R0Z       0.122000
     64 H23        163.8330   162.9300   164.5120 ha         1 R0Z       0.118000
     65 H24        163.1590   160.5420   164.7440 h1         1 R0Z       0.043200
     66 H25        164.8870   160.3120   164.4620 h1         1 R0Z       0.043200
     67 H26        163.7050   166.5460   164.1130 h1         1 R0Z       0.041700
     68 H27        164.4900   165.0270   163.6390 h1         1 R0Z       0.041700
     69 H28        162.7980   165.0230   164.2050 h1         1 R0Z       0.041700
     70 H29        165.3550   167.0140   168.9780 h1         1 R0Z       0.034033
     71 H30        165.7140   166.6450   167.2820 h1         1 R0Z       0.034033
     72 H31        164.0250   166.6200   167.8740 h1         1 R0Z       0.034033
     73 H32        161.4470   165.4100   160.9450 hn         1 R0Z       0.400000
     74 H33        163.2330   161.6960   159.3810 hn         1 R0Z       0.154000
     75 O39        164.2400   165.3020   165.7040 os         1 R0Z      -0.334100
@<TRIPOS>BOND
     1     1     3 ar  
     2     1    16 ar  
     3     1    35 1   
     4     2    18 ar  
     5     2    19 ar  
     6     2    42 1   
     7     3    19 ar  
     8     3    20 1   
     9     4     5 ar  
    10     4     7 ar  
    11     4    36 1   
    12     5    21 ar  
    13     5    43 1   
    14     6    21 ar  
    15     6    22 ar  
    16     6    23 1   
    17     7    22 ar  
    18     7    44 1   
    19     8    23 1   
    20     8    37 1   
    21     8    45 1   
    22     8    46 1   
    23     9    38 1   
    24     9    47 1   
    25     9    48 1   
    26     9    49 1   
    27    10    11 ar  
    28    10    15 ar  
    29    10    38 1   
    30    11    12 ar  
    31    11    50 1   
    32    12    13 ar  
    33    12    51 1   
    34    13    14 ar  
    35    13    52 1   
    36    14    15 ar  
    37    14    17 1   
    38    15    35 1   
    39    16    17 1   
    40    16    18 ar  
    41    17    39 2   
    42    18    53 1   
    43    19    54 1   
    44    20    36 1   
    45    20    40 2   
    46    21    55 1   
    47    22    56 1   
    48    23    57 1   
    49    23    58 1   
    50    24    25 1   
    51    24    37 1   
    52    24    59 1   
    53    24    60 1   
    54    25    26 1   
    55    25    61 1   
    56    25    62 1   
    57    26    27 ar  
    58    26    31 ar  
    59    27    28 ar  
    60    27    63 1   
    61    28    29 ar  
    62    28    41 1   
    63    29    30 ar  
    64    29    75 1   
    65    30    31 ar  
    66    30    64 1   
    67    31    32 1   
    68    32    37 1   
    69    32    65 1   
    70    32    66 1   
    71    33    67 1   
    72    33    68 1   
    73    33    69 1   
    74    33    75 1   
    75    34    41 1   
    76    34    70 1   
    77    34    71 1   
    78    34    72 1   
    79    35    73 1   
    80    36    74 1   
@<TRIPOS>SUBSTRUCTURE
     1 R0Z         1 TEMP              0 ****  ****    0 ROOT
