@<TRIPOS>MOLECULE
R0Z
   75    80     1     0     0
SMALL
bcc


@<TRIPOS>ATOM
      1 C10        162.0020   165.3170   159.4680 ca         1 R0Z       0.258600
      2 C15        162.0740   164.1630   156.9150 ca         1 R0Z      -0.205000
      3 C17        162.0110   163.9030   159.3310 ca         1 R0Z      -0.243600
      4 C21        162.6500   160.7740   161.3250 ca         1 R0Z       0.056600
      5 C22        163.5560   159.7550   161.0260 ca         1 R0Z      -0.163000
      6 C24        163.0560   158.6350   163.1100 ca         1 R0Z      -0.095300
      7 C26        161.9160   160.6960   162.5080 ca         1 R0Z      -0.163000
      8 C28        164.5330   158.0490   165.0610 c3         1 R0Z       0.187800
      9 C01        161.6420   167.2720   164.4900 c3         1 R0Z       0.129700
     10 C03        161.8380   167.7710   162.1820 ca         1 R0Z       0.087100
     11 C04        161.8820   169.1330   162.3790 ca         1 R0Z      -0.165000
     12 C05        162.0190   170.0040   161.2870 ca         1 R0Z      -0.139000
     13 C06        162.1110   169.5140   160.0100 ca         1 R0Z      -0.077000
     14 C07        162.0730   168.1280   159.7850 ca         1 R0Z      -0.195600
     15 C08        161.9460   167.2560   160.8670 ca         1 R0Z       0.170600
     16 C11        162.0970   166.1250   158.3190 ca         1 R0Z      -0.249600
     17 C12        162.1530   167.5860   158.4310 c          1 R0Z       0.604300
     18 C14        162.1330   165.5290   157.0550 ca         1 R0Z      -0.002000
     19 C16        162.0200   163.3640   158.0560 ca         1 R0Z      -0.037000
     20 C18        161.9890   163.0310   160.5400 c          1 R0Z       0.695700
     21 C23        163.7510   158.7050   161.9050 ca         1 R0Z      -0.095000
     22 C25        162.1280   159.6360   163.3770 ca         1 R0Z      -0.095000
     23 C27        163.3880   157.5990   164.1410 c3         1 R0Z      -0.026100
     24 C30        164.5070   159.4050   167.1080 c6         1 R0Z       0.181800
     25 C31        163.7640   160.6000   167.6900 c6         1 R0Z      -0.022100
     26 C32        163.9540   161.8410   166.8610 ca         1 R0Z      -0.092300
     27 C33        163.5870   163.0950   167.3510 ca         1 R0Z      -0.109000
     28 C34        163.7070   164.2390   166.5870 ca         1 R0Z       0.063100
     29 C35        164.2190   164.1510   165.2800 ca         1 R0Z       0.122100
     30 C36        164.5910   162.9070   164.7930 ca         1 R0Z      -0.200000
     31 C37        164.4640   161.7580   165.5730 ca         1 R0Z      -0.037300
     32 C38        164.9000   160.4360   165.0080 c6         1 R0Z       0.218100
     33 C40        164.6900   165.2400   163.2330 c3         1 R0Z       0.123700
     34 C42        164.3190   166.2870   167.5520 c3         1 R0Z       0.125700
     35 N09        161.9220   165.9050   160.6870 na         1 R0Z      -0.594000
     36 N20        162.5240   161.8020   160.3780 ns         1 R0Z      -0.459100
     37 N29        164.2590   159.3310   165.6830 n3         1 R0Z      -0.742600
     38 O02        161.7030   166.8430   163.1420 os         1 R0Z      -0.323900
     39 O13        162.2580   168.3070   157.4460 o          1 R0Z      -0.556100
     40 O19        161.5320   163.4270   161.6070 o          1 R0Z      -0.609100
     41 O41        163.2850   165.4350   167.0840 os         1 R0Z      -0.331900
     42 H1         162.0740   163.7060   155.9360 ha         1 R0Z       0.142000
     43 H2         164.1220   159.7910   160.1020 ha         1 R0Z       0.145000
     44 H3         161.1930   161.4510   162.7660 ha         1 R0Z       0.145000
     45 H4         164.6620   157.2870   165.8330 h1         1 R0Z       0.031700
     46 H5         165.4740   158.0670   164.4940 h1         1 R0Z       0.031700
     47 H6         161.5570   166.3780   165.0990 h1         1 R0Z       0.048700
     48 H7         162.5480   167.8070   164.7810 h1         1 R0Z       0.048700
     49 H8         160.7740   167.9130   164.6610 h1         1 R0Z       0.048700
     50 H9         161.8070   169.5490   163.3750 ha         1 R0Z       0.140000
     51 H10        162.0480   171.0700   161.4670 ha         1 R0Z       0.136000
     52 H11        162.2090   170.1840   159.1670 ha         1 R0Z       0.155000
     53 H12        162.1960   166.1650   156.1820 ha         1 R0Z       0.157000
     54 H13        161.9620   162.2910   157.9210 ha         1 R0Z       0.130000
     55 H14        164.4760   157.9380   161.6550 ha         1 R0Z       0.136000
     56 H15        161.5700   159.6080   164.3040 ha         1 R0Z       0.136000
     57 H16        162.5100   157.3920   164.7580 hc         1 R0Z       0.049700
     58 H17        163.6750   156.6590   163.6640 hc         1 R0Z       0.049700
     59 H18        164.1480   158.4920   167.5850 h1         1 R0Z       0.030700
     60 H19        165.5830   159.4840   167.3390 h1         1 R0Z       0.030700
     61 H20        162.6970   160.3630   167.7420 hc         1 R0Z       0.052700
     62 H21        164.0920   160.7740   168.7180 hc         1 R0Z       0.052700
     63 H22        163.1810   163.1850   168.3540 ha         1 R0Z       0.140000
     64 H23        164.9710   162.8040   163.7830 ha         1 R0Z       0.136000
     65 H24        164.6640   160.4080   163.9440 h1         1 R0Z       0.043200
     66 H25        166.0020   160.3620   165.0780 h1         1 R0Z       0.043200
     67 H26        164.6460   166.2570   162.8500 h1         1 R0Z       0.041700
     68 H27        165.7110   164.8670   163.1190 h1         1 R0Z       0.041700
     69 H28        164.0190   164.6090   162.6450 h1         1 R0Z       0.041700
     70 H29        163.8440   167.1940   167.9230 h1         1 R0Z       0.034033
     71 H30        164.8770   165.8230   168.3700 h1         1 R0Z       0.034033
     72 H31        165.0200   166.5600   166.7600 h1         1 R0Z       0.034033
     73 H32        161.7580   165.2950   161.4820 hn         1 R0Z       0.504800
     74 H33        163.0170   161.6310   159.5150 hn         1 R0Z       0.320500
     75 O39        164.2960   165.3020   164.5860 os         1 R0Z      -0.310900
@<TRIPOS>BOND
     1     1     3 ar  
     2     1    16 ar  
     3     1    35 1   
     4     2    18 ar  
     5     2    19 ar  
     6     2    42 1   
     7     3    19 ar  
     8     3    20 1   
     9     4     5 ar  
    10     4     7 ar  
    11     4    36 1   
    12     5    21 ar  
    13     5    43 1   
    14     6    21 ar  
    15     6    22 ar  
    16     6    23 1   
    17     7    22 ar  
    18     7    44 1   
    19     8    23 1   
    20     8    37 1   
    21     8    45 1   
    22     8    46 1   
    23     9    38 1   
    24     9    47 1   
    25     9    48 1   
    26     9    49 1   
    27    10    11 ar  
    28    10    15 ar  
    29    10    38 1   
    30    11    12 ar  
    31    11    50 1   
    32    12    13 ar  
    33    12    51 1   
    34    13    14 ar  
    35    13    52 1   
    36    14    15 ar  
    37    14    17 1   
    38    15    35 1   
    39    16    17 1   
    40    16    18 ar  
    41    17    39 2   
    42    18    53 1   
    43    19    54 1   
    44    20    36 1   
    45    20    40 2   
    46    21    55 1   
    47    22    56 1   
    48    23    57 1   
    49    23    58 1   
    50    24    25 1   
    51    24    37 1   
    52    24    59 1   
    53    24    60 1   
    54    25    26 1   
    55    25    61 1   
    56    25    62 1   
    57    26    27 ar  
    58    26    31 ar  
    59    27    28 ar  
    60    27    63 1   
    61    28    29 ar  
    62    28    41 1   
    63    29    30 ar  
    64    29    75 1   
    65    30    31 ar  
    66    30    64 1   
    67    31    32 1   
    68    32    37 1   
    69    32    65 1   
    70    32    66 1   
    71    33    67 1   
    72    33    68 1   
    73    33    69 1   
    74    33    75 1   
    75    34    41 1   
    76    34    70 1   
    77    34    71 1   
    78    34    72 1   
    79    35    73 1   
    80    36    74 1   
@<TRIPOS>SUBSTRUCTURE
     1 R0Z         1 TEMP              0 ****  ****    0 ROOT
