@<TRIPOS>MOLECULE
R11
   57    61     1     0     0
SMALL
bcc


@<TRIPOS>ATOM
      1 N1          -1.5410     1.6410     9.0830 n2         1 R11      -0.831100
      2 N2          -0.0640    -0.1450     9.4960 nv         1 R11      -0.960800
      3 C1          -0.7340     0.7310     8.6840 ce         1 R11       0.665800
      4 C2          -0.5190     0.5450     7.2290 ca         1 R11      -0.194900
      5 C3          -0.8280     1.5790     6.3410 ca         1 R11      -0.051000
      6 C4          -0.6330     1.4440     4.9850 ca         1 R11      -0.213500
      7 C5          -0.1260     0.2510     4.4420 ca         1 R11       0.186600
      8 C6           0.1540    -0.7990     5.3230 ca         1 R11      -0.213500
      9 C7          -0.0340    -0.6420     6.6880 ca         1 R11      -0.051000
     10 N            0.1020     0.1740     3.0910 nu         1 R11      -0.768600
     11 C            0.3760    -1.0800     2.4290 c3         1 R11       0.196500
     12 N3           0.0920    -1.2060    -0.0230 nc         1 R11      -0.561100
     13 C8           0.7940    -0.8450     1.0170 cd         1 R11       0.396800
     14 N9           1.9600    -0.2220     0.6900 na         1 R11      -0.134300
     15 C3A          2.0180    -0.1950    -0.6780 ca         1 R11      -0.073200
     16 C7A          0.8340    -0.8140    -1.1100 ca         1 R11       0.064400
     17 C10          2.9680     0.2900    -1.5660 ca         1 R11      -0.131000
     18 C11          2.6880     0.1430    -2.9140 ca         1 R11      -0.102000
     19 C12          1.5100    -0.4690    -3.3720 ca         1 R11      -0.145300
     20 C13          0.5750    -0.9540    -2.4700 ca         1 R11      -0.036000
     21 C14          3.0010     0.2390     1.5810 c3         1 R11       0.029600
     22 C9           1.2710    -0.5990    -4.8560 c3         1 R11       0.104600
     23 N4           0.0670     0.0760    -5.2960 na         1 R11      -0.154300
     24 C15         -0.0910     1.4200    -5.4800 cc         1 R11       0.427800
     25 N16         -1.3060     1.7440    -5.8320 nd         1 R11      -0.579100
     26 C17         -2.0020     0.5600    -5.8800 ca         1 R11       0.073400
     27 C18         -1.1530    -0.5050    -5.5400 ca         1 R11      -0.078200
     28 C19         -3.3350     0.3120    -6.2000 ca         1 R11      -0.067000
     29 C20         -3.7780    -0.9990    -6.1690 ca         1 R11      -0.154000
     30 C21         -2.9170    -2.0510    -5.8270 ca         1 R11      -0.113000
     31 C22         -1.5890    -1.8250    -5.5050 ca         1 R11      -0.136000
     32 C23          1.0260     2.3800    -5.2930 c3         1 R11      -0.112400
     33 HN1         -1.5640     1.6890    10.0980 hn         1 R11       0.369400
     34 HN21        -0.0690     0.0590    10.4830 hn         1 R11       0.400300
     35 HN22         0.8190    -0.5060     9.1750 hn         1 R11       0.400300
     36 HC3         -1.2180     2.5100     6.7300 ha         1 R11       0.143000
     37 HC4         -0.8670     2.2720     4.3250 ha         1 R11       0.132000
     38 HC6          0.5150    -1.7520     4.9600 ha         1 R11       0.132000
     39 HC7          0.1840    -1.4900     7.3260 ha         1 R11       0.143000
     40 HN          -0.4080     0.8440     2.5370 hn         1 R11       0.427800
     41 H1C         -0.4850    -1.7570     2.4190 h1         1 R11       0.065200
     42 H2C          1.1830    -1.5990     2.9530 h1         1 R11       0.065200
     43 H10C         3.8840     0.7610    -1.2350 ha         1 R11       0.139000
     44 H11C         3.4050     0.5100    -3.6400 ha         1 R11       0.129000
     45 H13C        -0.3360    -1.4350    -2.8030 ha         1 R11       0.157000
     46 H141         3.8370    -0.4590     1.5970 h1         1 R11       0.058367
     47 H142         3.3580     1.2140     1.2550 h1         1 R11       0.058367
     48 H143         2.6040     0.3450     2.5850 h1         1 R11       0.058367
     49 HC91         2.1220    -0.2040    -5.4130 h1         1 R11       0.063200
     50 HC92         1.1790    -1.6470    -5.1440 h1         1 R11       0.063200
     51 H19C        -4.0020     1.1240    -6.4630 ha         1 R11       0.145000
     52 H20C        -4.8090    -1.2200    -6.4120 ha         1 R11       0.131000
     53 H21C        -3.2980    -3.0640    -5.8130 ha         1 R11       0.129000
     54 H22C        -0.9330    -2.6440    -5.2400 ha         1 R11       0.133000
     55 H231         1.9030     2.0910    -5.8730 hc         1 R11       0.057700
     56 H232         0.7120     3.3700    -5.6120 hc         1 R11       0.057700
     57 H233         1.3300     2.4360    -4.2470 hc         1 R11       0.057700
@<TRIPOS>BOND
     1     1     3 2   
     2     1    33 1   
     3     2     3 1   
     4     2    34 1   
     5     2    35 1   
     6     3     4 1   
     7     4     5 ar  
     8     4     9 ar  
     9     5     6 ar  
    10     5    36 1   
    11     6     7 ar  
    12     6    37 1   
    13     7     8 ar  
    14     7    10 1   
    15     8     9 ar  
    16     8    38 1   
    17     9    39 1   
    18    10    11 1   
    19    10    40 1   
    20    11    13 1   
    21    11    41 1   
    22    11    42 1   
    23    12    13 2   
    24    12    16 1   
    25    13    14 1   
    26    14    15 1   
    27    14    21 1   
    28    15    16 ar  
    29    15    17 ar  
    30    16    20 ar  
    31    17    18 ar  
    32    17    43 1   
    33    18    19 ar  
    34    18    44 1   
    35    19    20 ar  
    36    19    22 1   
    37    20    45 1   
    38    21    46 1   
    39    21    47 1   
    40    21    48 1   
    41    22    23 1   
    42    22    49 1   
    43    22    50 1   
    44    23    24 1   
    45    23    27 1   
    46    24    25 2   
    47    24    32 1   
    48    25    26 1   
    49    26    27 ar  
    50    26    28 ar  
    51    27    31 ar  
    52    28    29 ar  
    53    28    51 1   
    54    29    30 ar  
    55    29    52 1   
    56    30    31 ar  
    57    30    53 1   
    58    31    54 1   
    59    32    55 1   
    60    32    56 1   
    61    32    57 1   
@<TRIPOS>SUBSTRUCTURE
     1 R11         1 TEMP              0 ****  ****    0 ROOT
