@<TRIPOS>MOLECULE
R11
   57    61     1     0     0
SMALL
No Charge or Current Charge


@<TRIPOS>ATOM
      1 N1          -1.9030     1.7900     9.0110 n2         1 R11      -0.831100
      2 N2          -0.6390     0.0160     9.5740 nv         1 R11      -1.071200
      3 C1          -1.1560     0.8350     8.6360 ce         1 R11       0.665800
      4 C2          -0.7130     0.6480     7.2190 ca         1 R11      -0.194900
      5 C3          -0.8100     1.7140     6.2960 ca         1 R11      -0.033000
      6 C4          -0.4270     1.5380     4.9550 ca         1 R11      -0.195500
      7 C5           0.0420     0.2970     4.5060 ca         1 R11       0.325000
      8 C6           0.1220    -0.7760     5.4070 ca         1 R11      -0.195500
      9 C7          -0.2590    -0.6080     6.7510 ca         1 R11      -0.033000
     10 N            0.4140     0.1580     3.1700 nu         1 R11      -0.962200
     11 C            0.6490    -1.1180     2.4300 c3         1 R11       0.196500
     12 N3           0.2030    -1.0710    -0.0540 nc         1 R11      -0.561100
     13 C8           1.0610    -0.8970     0.9760 cd         1 R11       0.396800
     14 N9           2.3480    -0.4890     0.5760 na         1 R11      -0.163600
     15 C3A          2.2630    -0.4160    -0.7870 ca         1 R11      -0.073200
     16 C7A          0.9910    -0.7600    -1.1520 ca         1 R11       0.064400
     17 C10          3.2460    -0.0650    -1.7230 ca         1 R11      -0.113000
     18 C11          2.8900    -0.0710    -3.0860 ca         1 R11      -0.084000
     19 C12          1.5760    -0.4190    -3.4860 ca         1 R11      -0.145300
     20 C13          0.6170    -0.7720    -2.5040 ca         1 R11      -0.018000
     21 C14          3.5420    -0.1690     1.3760 c3         1 R11       0.058900
     22 C9           1.2080    -0.4160    -4.9670 c3         1 R11       0.133900
     23 N4          -0.0820     0.2400    -5.2490 na         1 R11      -0.183600
     24 C15         -0.3620     1.6060    -5.3330 cc         1 R11       0.427800
     25 N16         -1.6640     1.8170    -5.6160 nd         1 R11      -0.579100
     26 C17         -2.1990     0.5330    -5.7030 ca         1 R11       0.073400
     27 C18         -1.2500    -0.4280    -5.4810 ca         1 R11      -0.078200
     28 C19         -3.5290     0.1770    -5.9730 ca         1 R11      -0.049000
     29 C20         -3.8630    -1.1950    -6.0070 ca         1 R11      -0.136000
     30 C21         -2.8750    -2.1800    -5.7710 ca         1 R11      -0.095000
     31 C22         -1.5430    -1.8000    -5.5020 ca         1 R11      -0.118000
     32 C23          0.6520     2.6930    -5.1250 c3         1 R11      -0.112400
     33 HN1         -2.2150     1.5900     9.9680 hn         1 R11       0.369400
     34 HN21        -0.5960     0.3940    10.5130 hn         1 R11       0.455500
     35 HN22         0.1760    -0.5120     9.2860 hn         1 R11       0.455500
     36 HC3         -1.1750     2.6880     6.6170 ha         1 R11       0.125000
     37 HC4         -0.4990     2.3740     4.2650 ha         1 R11       0.114000
     38 HC6          0.4740    -1.7480     5.0770 ha         1 R11       0.114000
     39 HC7         -0.2070    -1.4660     7.4180 ha         1 R11       0.125000
     40 HN           0.2980     1.0000     2.6010 hn         1 R11       0.483000
     41 H1C         -0.2620    -1.7330     2.4450 h1         1 R11       0.065200
     42 H2C          1.4410    -1.7000     2.9200 h1         1 R11       0.065200
     43 H10C         4.2540     0.2030    -1.4130 ha         1 R11       0.121000
     44 H11C         3.6360     0.1980    -3.8320 ha         1 R11       0.111000
     45 H13C        -0.3970    -1.0490    -2.7820 ha         1 R11       0.139000
     46 H141         4.3220    -0.9160     1.1860 h1         1 R11       0.058367
     47 H142         3.9160     0.8240     1.0970 h1         1 R11       0.058367
     48 H143         3.2950    -0.1690     2.4440 h1         1 R11       0.058367
     49 HC91         1.9870     0.1060    -5.5370 h1         1 R11       0.063200
     50 HC92         1.1840    -1.4480    -5.3350 h1         1 R11       0.063200
     51 H19C        -4.2820     0.9400    -6.1490 ha         1 R11       0.127000
     52 H20C        -4.8880    -1.4950    -6.2130 ha         1 R11       0.113000
     53 H21C        -3.1430    -3.2340    -5.7970 ha         1 R11       0.111000
     54 H22C        -0.7810    -2.5530    -5.3160 ha         1 R11       0.115000
     55 H231         1.4350     2.6420    -5.8890 hc         1 R11       0.057700
     56 H232         0.1860     3.6840    -5.1810 hc         1 R11       0.057700
     57 H233         1.1260     2.5970    -4.1410 hc         1 R11       0.057700
@<TRIPOS>BOND
     1     1     3 2   
     2     1    33 1   
     3     2     3 1   
     4     2    34 1   
     5     2    35 1   
     6     3     4 1   
     7     4     5 ar  
     8     4     9 ar  
     9     5     6 ar  
    10     5    36 1   
    11     6     7 ar  
    12     6    37 1   
    13     7     8 ar  
    14     7    10 1   
    15     8     9 ar  
    16     8    38 1   
    17     9    39 1   
    18    10    11 1   
    19    10    40 1   
    20    11    13 1   
    21    11    41 1   
    22    11    42 1   
    23    12    13 2   
    24    12    16 1   
    25    13    14 1   
    26    14    15 1   
    27    14    21 1   
    28    15    16 ar  
    29    15    17 ar  
    30    16    20 ar  
    31    17    18 ar  
    32    17    43 1   
    33    18    19 ar  
    34    18    44 1   
    35    19    20 ar  
    36    19    22 1   
    37    20    45 1   
    38    21    46 1   
    39    21    47 1   
    40    21    48 1   
    41    22    23 1   
    42    22    49 1   
    43    22    50 1   
    44    23    24 1   
    45    23    27 1   
    46    24    25 2   
    47    24    32 1   
    48    25    26 1   
    49    26    27 ar  
    50    26    28 ar  
    51    27    31 ar  
    52    28    29 ar  
    53    28    51 1   
    54    29    30 ar  
    55    29    52 1   
    56    30    31 ar  
    57    30    53 1   
    58    31    54 1   
    59    32    55 1   
    60    32    56 1   
    61    32    57 1   
@<TRIPOS>SUBSTRUCTURE
     1 R11         1 TEMP              0 ****  ****    0 ROOT
