@<TRIPOS>MOLECULE
R12
   46    46     1     0     0
SMALL
No Charge or Current Charge


@<TRIPOS>ATOM
      1 C1          -6.0440    -0.9780     0.3300 ca         1 R12       0.137100
      2 C2          -5.7800     0.4060     0.4360 ca         1 R12      -0.175300
      3 C3          -4.4750     0.8850     0.1340 ca         1 R12      -0.029300
      4 C4          -3.4730    -0.0200    -0.3100 ca         1 R12      -0.059800
      5 C5          -3.7690    -1.3990    -0.4340 ca         1 R12      -0.031300
      6 C6          -5.0500    -1.8620    -0.0990 ca         1 R12      -0.154000
      7 C7          -2.1150     0.4860    -0.6670 ce         1 R12      -0.208200
      8 C8          -0.9210     0.1200    -0.1180 cf         1 R12      -0.132000
      9 C9           0.4100     0.6250    -0.4700 cf         1 R12      -0.151200
     10 C10          1.5250    -0.0270    -0.0210 ce         1 R12      -0.101000
     11 C11          2.9290     0.3340    -0.2750 ce         1 R12      -0.283000
     12 C12          3.9950    -0.3310     0.2550 cf         1 R12      -0.084000
     13 C13          5.4190    -0.0460     0.0380 cf         1 R12      -0.157200
     14 C14          6.3490    -1.0130     0.3400 ce         1 R12      -0.187200
     15 C15          7.8470    -0.9990     0.2120 c          1 R12       0.694200
     16 C18          5.7880     1.3530    -0.4540 c3         1 R12      -0.040900
     17 C19          0.4830     1.9190    -1.2790 c3         1 R12      -0.035900
     18 C20         -2.7360    -2.4040    -0.9410 c3         1 R12      -0.048800
     19 C23         -4.1430     2.3770     0.2910 c3         1 R12      -0.050800
     20 O1          -7.2680    -1.4910     0.6440 oh         1 R12      -0.546100
     21 O2           8.4220    -0.0360    -0.2720 o          1 R12      -0.718500
     22 O3           8.4400    -1.9990     0.5870 o          1 R12      -0.718500
     23 H2          -5.2820    -2.9210    -0.1810 ha         1 R12       0.121000
     24 H3          -2.1290     1.2420    -1.4520 ha         1 R12       0.173000
     25 H4          -0.9540    -0.6420     0.6630 ha         1 R12       0.165000
     26 H5           1.3740    -0.9250     0.5810 ha         1 R12       0.156000
     27 H6           3.1120     1.1670    -0.9520 ha         1 R12       0.176000
     28 H7           3.7740    -1.1880     0.8960 ha         1 R12       0.153000
     29 H8           5.9740    -1.9600     0.7230 ha         1 R12       0.144000
     30 H9           4.9970     2.0880    -0.2690 hc         1 R12       0.037367
     31 H10          6.6680     1.7470     0.0640 hc         1 R12       0.037367
     32 H11          5.9990     1.3530    -1.5300 hc         1 R12       0.037367
     33 H12         -0.3680     2.5800    -1.0750 hc         1 R12       0.032033
     34 H13          1.3730     2.5100    -1.0390 hc         1 R12       0.032033
     35 H14          0.4980     1.7120    -2.3550 hc         1 R12       0.032033
     36 H15         -2.0260    -2.6720    -0.1510 hc         1 R12       0.045700
     37 H16         -3.2110    -3.3310    -1.2840 hc         1 R12       0.045700
     38 H17         -2.1680    -2.0040    -1.7890 hc         1 R12       0.045700
     39 H18         -4.6530     2.8210     1.1540 hc         1 R12       0.041367
     40 H19         -3.0760     2.5600     0.4580 hc         1 R12       0.041367
     41 H20         -4.4410     2.9390    -0.6020 hc         1 R12       0.041367
     42 H21         -7.8320    -0.7550     0.9610 ho         1 R12       0.459000
     43 C16         -6.8860     1.3800     0.8760 c3         1 R12      -0.035800
     44 H1          -6.7820     1.6350     1.9370 hc         1 R12       0.033700
     45 H23         -6.8520     2.3140     0.3020 hc         1 R12       0.033700
     46 H24         -7.8950     0.9790     0.7280 hc         1 R12       0.033700
@<TRIPOS>BOND
     1     1     2 ar  
     2     1     6 ar  
     3     1    20 1   
     4     2     3 ar  
     5     2    43 1   
     6     3     4 ar  
     7     3    19 1   
     8     4     5 ar  
     9     4     7 1   
    10     5     6 ar  
    11     5    18 1   
    12     6    23 1   
    13     7     8 2   
    14     7    24 1   
    15     8     9 1   
    16     8    25 1   
    17     9    10 2   
    18     9    17 1   
    19    10    11 1   
    20    10    26 1   
    21    11    12 2   
    22    11    27 1   
    23    12    13 1   
    24    12    28 1   
    25    13    14 2   
    26    13    16 1   
    27    14    15 1   
    28    14    29 1   
    29    15    21 1   
    30    15    22 1   
    31    16    30 1   
    32    16    31 1   
    33    16    32 1   
    34    17    33 1   
    35    17    34 1   
    36    17    35 1   
    37    18    36 1   
    38    18    37 1   
    39    18    38 1   
    40    19    39 1   
    41    19    40 1   
    42    19    41 1   
    43    20    42 1   
    44    43    44 1   
    45    43    45 1   
    46    43    46 1   
@<TRIPOS>SUBSTRUCTURE
     1 R12         1 TEMP              0 ****  ****    0 ROOT
