@<TRIPOS>MOLECULE
R12
   46    46     1     0     0
SMALL
abcg2


@<TRIPOS>ATOM
      1 C1          -5.9390    -0.9700     0.2940 ca         1 R12       0.137100
      2 C2          -5.6860     0.3910     0.4820 ca         1 R12      -0.175300
      3 C3          -4.4050     0.8770     0.1890 ca         1 R12      -0.029300
      4 C4          -3.3940     0.0320    -0.3010 ca         1 R12      -0.059800
      5 C5          -3.6790    -1.3310    -0.5050 ca         1 R12      -0.031300
      6 C6          -4.9440    -1.8060    -0.2000 ca         1 R12      -0.154000
      7 C7          -2.0760     0.5980    -0.6330 ce         1 R12      -0.208200
      8 C8          -0.8970     0.0900    -0.2450 cf         1 R12      -0.132000
      9 C9           0.4090     0.6350    -0.5790 cf         1 R12      -0.151200
     10 C10          1.5050     0.0010    -0.0990 ce         1 R12      -0.101000
     11 C11          2.8830     0.3670    -0.3000 ce         1 R12      -0.283000
     12 C12          3.9050    -0.3480     0.2120 cf         1 R12      -0.084000
     13 C13          5.3220    -0.0430     0.0590 cf         1 R12      -0.157200
     14 C14          6.2020    -0.8890     0.6350 ce         1 R12      -0.187200
     15 C15          7.7120    -0.8660     0.6570 c          1 R12       0.694200
     16 C18          5.6810     1.1810    -0.7300 c3         1 R12      -0.040900
     17 C19          0.4620     1.8630    -1.4370 c3         1 R12      -0.035900
     18 C20         -2.6800    -2.3050    -1.0680 c3         1 R12      -0.048800
     19 C23         -4.1360     2.3350     0.4460 c3         1 R12      -0.050800
     20 O1          -7.1280    -1.5570     0.5570 oh         1 R12      -0.546100
     21 O2           8.3320     0.0640     0.1000 o          1 R12      -0.718500
     22 O3           8.2310    -1.8300     1.2620 o          1 R12      -0.718500
     23 H2          -5.1770    -2.8530    -0.3580 ha         1 R12       0.121000
     24 H3          -2.0810     1.5030    -1.2330 ha         1 R12       0.173000
     25 H4          -0.8900    -0.7950     0.3850 ha         1 R12       0.165000
     26 H5           1.3410    -0.8860     0.5090 ha         1 R12       0.156000
     27 H6           3.0990     1.2540    -0.8850 ha         1 R12       0.176000
     28 H7           3.6670    -1.2360     0.7920 ha         1 R12       0.153000
     29 H8           5.7740    -1.7350     1.1670 ha         1 R12       0.144000
     30 H9           5.1830     2.0630    -0.3240 hc         1 R12       0.037367
     31 H10          6.7510     1.3480    -0.7280 hc         1 R12       0.037367
     32 H11          5.3460     1.0810    -1.7650 hc         1 R12       0.037367
     33 H12         -0.0990     2.6820    -0.9830 hc         1 R12       0.032033
     34 H13          1.4740     2.2180    -1.6090 hc         1 R12       0.032033
     35 H14          0.0090     1.6740    -2.4120 hc         1 R12       0.032033
     36 H15         -2.0410    -2.7270    -0.2910 hc         1 R12       0.045700
     37 H16         -3.1930    -3.1400    -1.5450 hc         1 R12       0.045700
     38 H17         -2.0230    -1.8430    -1.8030 hc         1 R12       0.045700
     39 H18         -4.3960     2.6060     1.4700 hc         1 R12       0.041367
     40 H19         -3.0930     2.6050     0.3030 hc         1 R12       0.041367
     41 H20         -4.7360     2.9750    -0.2060 hc         1 R12       0.041367
     42 H21         -7.7540    -0.9260     0.9250 ho         1 R12       0.459000
     43 C16         -6.7370     1.3400     0.9930 c3         1 R12      -0.035800
     44 H1          -6.4710     1.7420     1.9720 hc         1 R12       0.033700
     45 H23         -6.8570     2.1910     0.3210 hc         1 R12       0.033700
     46 H24         -7.7280     0.8990     1.0980 hc         1 R12       0.033700
@<TRIPOS>BOND
     1     1     2 ar  
     2     1     6 ar  
     3     1    20 1   
     4     2     3 ar  
     5     2    43 1   
     6     3     4 ar  
     7     3    19 1   
     8     4     5 ar  
     9     4     7 1   
    10     5     6 ar  
    11     5    18 1   
    12     6    23 1   
    13     7     8 2   
    14     7    24 1   
    15     8     9 1   
    16     8    25 1   
    17     9    10 2   
    18     9    17 1   
    19    10    11 1   
    20    10    26 1   
    21    11    12 2   
    22    11    27 1   
    23    12    13 1   
    24    12    28 1   
    25    13    14 2   
    26    13    16 1   
    27    14    15 1   
    28    14    29 1   
    29    15    21 1   
    30    15    22 1   
    31    16    30 1   
    32    16    31 1   
    33    16    32 1   
    34    17    33 1   
    35    17    34 1   
    36    17    35 1   
    37    18    36 1   
    38    18    37 1   
    39    18    38 1   
    40    19    39 1   
    41    19    40 1   
    42    19    41 1   
    43    20    42 1   
    44    43    44 1   
    45    43    45 1   
    46    43    46 1   
@<TRIPOS>SUBSTRUCTURE
     1 R12         1 TEMP              0 ****  ****    0 ROOT
