@<TRIPOS>MOLECULE
R13
   54    55     1     0     0
SMALL
No Charge or Current Charge


@<TRIPOS>ATOM
      1 C1           1.6050    -0.4620    -4.2920 c6         1 R13       0.002300
      2 C2           0.9530    -1.0270    -5.5860 c6         1 R13      -0.065400
      3 C3          -0.2540    -0.1880    -6.0350 c6         1 R13      -0.065400
      4 C4          -1.4030    -0.2290    -4.9890 c6         1 R13       0.005300
      5 C5          -0.8450     0.0130    -3.5330 ca         1 R13      -0.077300
      6 C6          -1.7580     0.3010    -2.4940 ca         1 R13      -0.111000
      7 C7          -1.3190     0.5360    -1.1840 ca         1 R13      -0.113000
      8 C8           0.0480     0.4880    -0.8770 ca         1 R13      -0.015800
      9 C9           0.9640     0.1690    -1.8950 ca         1 R13      -0.116000
     10 C10          0.5410    -0.0960    -3.2200 ca         1 R13      -0.061300
     11 C11          0.5160     0.7530     0.5160 ce         1 R13      -0.124400
     12 C12         -0.0760     0.1950     1.6130 cf         1 R13      -0.111000
     13 C13          0.3040     0.3980     3.0090 cf         1 R13      -0.279000
     14 C14         -0.3440    -0.1660     4.0680 ce         1 R13      -0.089000
     15 C15         -0.0270    -0.0020     5.5030 ce         1 R13      -0.156200
     16 C16         -0.9810    -0.3290     6.4390 cf         1 R13      -0.189200
     17 C17         -0.9250    -0.2510     7.9370 c          1 R13       0.695200
     18 C18         -2.1960    -1.5980    -5.1200 c3         1 R13      -0.079600
     19 C19         -2.4180     0.8950    -5.3760 c3         1 R13      -0.079600
     20 C20          2.4430     0.8160    -4.6130 c3         1 R13      -0.080100
     21 C21          2.6030    -1.5410    -3.7600 c3         1 R13      -0.080100
     22 C22          1.6810     1.7270     0.6460 c3         1 R13      -0.035900
     23 C23          1.3870     0.4610     5.8530 c3         1 R13      -0.038900
     24 O1           0.0560     0.2060     8.5020 o          1 R13      -0.719500
     25 O2          -1.9140    -0.6360     8.5420 o          1 R13      -0.719500
     26 H21          1.6940    -1.0660    -6.3960 hc         1 R13       0.038200
     27 H22          0.6370    -2.0660    -5.4260 hc         1 R13       0.038200
     28 H31          0.0640     0.8490    -6.2090 hc         1 R13       0.037200
     29 H32         -0.6130    -0.5520    -7.0080 hc         1 R13       0.037200
     30 H6          -2.8250     0.3440    -2.6920 ha         1 R13       0.103000
     31 H7          -2.0440     0.7700    -0.4090 ha         1 R13       0.116000
     32 H9           2.0180     0.1250    -1.6410 ha         1 R13       0.109000
     33 H12         -0.9130    -0.4850     1.4370 ha         1 R13       0.160000
     34 H13          1.1510     1.0560     3.2010 ha         1 R13       0.175000
     35 H14         -1.2120    -0.7910     3.8450 ha         1 R13       0.152000
     36 H16         -1.9380    -0.6880     6.0670 ha         1 R13       0.143000
     37 H181        -3.0690    -1.6160    -4.4570 hc         1 R13       0.031867
     38 H182        -2.5570    -1.7620    -6.1430 hc         1 R13       0.031867
     39 H183        -1.5690    -2.4540    -4.8470 hc         1 R13       0.031867
     40 H191        -3.3440     0.8470    -4.7920 hc         1 R13       0.031867
     41 H192        -1.9830     1.8900    -5.2240 hc         1 R13       0.031867
     42 H193        -2.7090     0.8230    -6.4310 hc         1 R13       0.031867
     43 H201         2.9920     1.1690    -3.7320 hc         1 R13       0.032867
     44 H202         3.1810     0.6260    -5.4020 hc         1 R13       0.032867
     45 H203         1.8090     1.6450    -4.9450 hc         1 R13       0.032867
     46 H211         3.2340    -1.1710    -2.9440 hc         1 R13       0.032867
     47 H212         2.0690    -2.4250    -3.3900 hc         1 R13       0.032867
     48 H213         3.2830    -1.8780    -4.5530 hc         1 R13       0.032867
     49 H221         1.4670     2.5120     1.3810 hc         1 R13       0.032367
     50 H222         2.5950     1.2090     0.9630 hc         1 R13       0.032367
     51 H223         1.9010     2.2360    -0.3000 hc         1 R13       0.032367
     52 H231         1.7980    -0.0930     6.7040 hc         1 R13       0.036033
     53 H232         2.1000     0.2950     5.0380 hc         1 R13       0.036033
     54 H233         1.4060     1.5280     6.1020 hc         1 R13       0.036033
@<TRIPOS>BOND
     1     1     2 1   
     2     1    10 1   
     3     1    20 1   
     4     1    21 1   
     5     2     3 1   
     6     2    26 1   
     7     2    27 1   
     8     3     4 1   
     9     3    28 1   
    10     3    29 1   
    11     4     5 1   
    12     4    18 1   
    13     4    19 1   
    14     5     6 ar  
    15     5    10 ar  
    16     6     7 ar  
    17     6    30 1   
    18     7     8 ar  
    19     7    31 1   
    20     8     9 ar  
    21     8    11 1   
    22     9    10 ar  
    23     9    32 1   
    24    11    12 2   
    25    11    22 1   
    26    12    13 1   
    27    12    33 1   
    28    13    14 2   
    29    13    34 1   
    30    14    15 1   
    31    14    35 1   
    32    15    16 2   
    33    15    23 1   
    34    16    17 1   
    35    16    36 1   
    36    17    24 1   
    37    17    25 1   
    38    18    37 1   
    39    18    38 1   
    40    18    39 1   
    41    19    40 1   
    42    19    41 1   
    43    19    42 1   
    44    20    43 1   
    45    20    44 1   
    46    20    45 1   
    47    21    46 1   
    48    21    47 1   
    49    21    48 1   
    50    22    49 1   
    51    22    50 1   
    52    22    51 1   
    53    23    52 1   
    54    23    53 1   
    55    23    54 1   
@<TRIPOS>SUBSTRUCTURE
     1 R13         1 TEMP              0 ****  ****    0 ROOT
