@<TRIPOS>MOLECULE
R13
   54    55     1     0     0
SMALL
abcg2


@<TRIPOS>ATOM
      1 C1           1.5870    -0.3790    -4.3090 c6         1 R13       0.002300
      2 C2           0.9010    -0.9240    -5.5660 c6         1 R13      -0.065400
      3 C3          -0.3400    -0.1390    -5.9340 c6         1 R13      -0.065400
      4 C4          -1.4280    -0.2320    -4.8610 c6         1 R13       0.005300
      5 C5          -0.8220    -0.0240    -3.4800 ca         1 R13      -0.077300
      6 C6          -1.6750     0.2170    -2.3980 ca         1 R13      -0.111000
      7 C7          -1.2090     0.4310    -1.1180 ca         1 R13      -0.113000
      8 C8           0.1650     0.4210    -0.8550 ca         1 R13      -0.015800
      9 C9           1.0110     0.1810    -1.9330 ca         1 R13      -0.116000
     10 C10          0.5540    -0.0750    -3.2290 ca         1 R13      -0.061300
     11 C11          0.7070     0.6510     0.4990 ce         1 R13      -0.124400
     12 C12         -0.0230     0.3110     1.5820 cf         1 R13      -0.111000
     13 C13          0.3480     0.4660     2.9680 cf         1 R13      -0.279000
     14 C14         -0.4410     0.0360     3.9730 ce         1 R13      -0.089000
     15 C15         -0.1540     0.1490     5.3980 ce         1 R13      -0.156200
     16 C16         -1.0660    -0.3550     6.2540 cf         1 R13      -0.189200
     17 C17         -1.0610    -0.4140     7.7620 c          1 R13       0.695200
     18 C18         -2.1070    -1.6080    -4.9100 c3         1 R13      -0.079600
     19 C19         -2.4740     0.8450    -5.1730 c3         1 R13      -0.079600
     20 C20          2.3590     0.9050    -4.6460 c3         1 R13      -0.080100
     21 C21          2.5830    -1.4420    -3.8310 c3         1 R13      -0.080100
     22 C22          2.0920     1.2220     0.5900 c3         1 R13      -0.035900
     23 C23          1.1380     0.8010     5.7920 c3         1 R13      -0.038900
     24 O1          -0.2420     0.2720     8.4090 o          1 R13      -0.719500
     25 O2          -1.9250    -1.1760     8.2480 o          1 R13      -0.719500
     26 H21          1.6190    -0.9170    -6.3910 hc         1 R13       0.038200
     27 H22          0.6380    -1.9750    -5.4070 hc         1 R13       0.038200
     28 H31         -0.0770     0.9120    -6.0890 hc         1 R13       0.037200
     29 H32         -0.7470    -0.4920    -6.8860 hc         1 R13       0.037200
     30 H6          -2.7450     0.2500    -2.5600 ha         1 R13       0.103000
     31 H7          -1.9200     0.6380    -0.3280 ha         1 R13       0.116000
     32 H9           2.0800     0.1740    -1.7600 ha         1 R13       0.109000
     33 H12         -0.9900    -0.1540     1.4180 ha         1 R13       0.160000
     34 H13          1.2940     0.9390     3.2030 ha         1 R13       0.175000
     35 H14         -1.3820    -0.4410     3.7130 ha         1 R13       0.152000
     36 H16         -1.9410    -0.8180     5.8040 ha         1 R13       0.143000
     37 H181        -2.8930    -1.6890    -4.1560 hc         1 R13       0.031867
     38 H182        -2.5660    -1.7720    -5.8880 hc         1 R13       0.031867
     39 H183        -1.4000    -2.4200    -4.7320 hc         1 R13       0.031867
     40 H191        -3.3420     0.8040    -4.5130 hc         1 R13       0.031867
     41 H192        -2.0430     1.8450    -5.0990 hc         1 R13       0.031867
     42 H193        -2.8420     0.7170    -6.1930 hc         1 R13       0.031867
     43 H201         2.8500     1.3170    -3.7640 hc         1 R13       0.032867
     44 H202         3.1310     0.6980    -5.3900 hc         1 R13       0.032867
     45 H203         1.7080     1.6810    -5.0510 hc         1 R13       0.032867
     46 H211         3.1900    -1.1100    -2.9890 hc         1 R13       0.032867
     47 H212         2.0680    -2.3580    -3.5360 hc         1 R13       0.032867
     48 H213         3.2690    -1.6930    -4.6440 hc         1 R13       0.032867
     49 H221         2.3170     1.6160     1.5780 hc         1 R13       0.032367
     50 H222         2.8480     0.4630     0.3720 hc         1 R13       0.032367
     51 H223         2.2350     2.0280    -0.1300 hc         1 R13       0.032367
     52 H231         1.2820     0.7750     6.8660 hc         1 R13       0.036033
     53 H232         1.9820     0.3070     5.3070 hc         1 R13       0.036033
     54 H233         1.1590     1.8440     5.4670 hc         1 R13       0.036033
@<TRIPOS>BOND
     1     1     2 1   
     2     1    10 1   
     3     1    20 1   
     4     1    21 1   
     5     2     3 1   
     6     2    26 1   
     7     2    27 1   
     8     3     4 1   
     9     3    28 1   
    10     3    29 1   
    11     4     5 1   
    12     4    18 1   
    13     4    19 1   
    14     5     6 ar  
    15     5    10 ar  
    16     6     7 ar  
    17     6    30 1   
    18     7     8 ar  
    19     7    31 1   
    20     8     9 ar  
    21     8    11 1   
    22     9    10 ar  
    23     9    32 1   
    24    11    12 2   
    25    11    22 1   
    26    12    13 1   
    27    12    33 1   
    28    13    14 2   
    29    13    34 1   
    30    14    15 1   
    31    14    35 1   
    32    15    16 2   
    33    15    23 1   
    34    16    17 1   
    35    16    36 1   
    36    17    24 1   
    37    17    25 1   
    38    18    37 1   
    39    18    38 1   
    40    18    39 1   
    41    19    40 1   
    42    19    41 1   
    43    19    42 1   
    44    20    43 1   
    45    20    44 1   
    46    20    45 1   
    47    21    46 1   
    48    21    47 1   
    49    21    48 1   
    50    22    49 1   
    51    22    50 1   
    52    22    51 1   
    53    23    52 1   
    54    23    53 1   
    55    23    54 1   
@<TRIPOS>SUBSTRUCTURE
     1 R13         1 TEMP              0 ****  ****    0 ROOT
