@<TRIPOS>MOLECULE
R14
  103   109     1     0     0
SMALL
bcc


@<TRIPOS>ATOM
      1 CAA        -12.5500     5.8680     2.7430 c3         1 R14      -0.089600
      2 CAB        -13.4770     6.4730    -1.3540 c3         1 R14      -0.089600
      3 CAC         14.4970     5.6870    -1.2450 c3         1 R14      -0.089600
      4 CAD         11.1580     7.2110     0.8760 c3         1 R14      -0.089600
      5 OAE         -9.2390     2.2000    -0.0820 o          1 R14      -0.569600
      6 OAF          9.2840     2.2810    -0.2920 o          1 R14      -0.569600
      7 CAG        -10.3990    -2.9550     0.2400 ca         1 R14      -0.102000
      8 CAH         10.1270    -2.5370     1.7400 ca         1 R14      -0.102000
      9 CAI        -10.9950    -1.7070     0.2560 ca         1 R14      -0.185500
     10 CAJ         10.7720    -1.3400     1.4880 ca         1 R14      -0.185500
     11 CAK         -9.0330    -3.0840     0.0480 ca         1 R14      -0.152500
     12 CAL          8.8060    -2.7230     1.3630 ca         1 R14      -0.152500
     13 CAM         -3.5810    -4.8000    -0.7060 ca         1 R14      -0.136000
     14 CAN          3.6390    -4.7090    -0.3880 ca         1 R14      -0.136000
     15 CAO         -2.4220    -5.5050    -0.7240 ca         1 R14      -0.090500
     16 CAP          2.5040    -5.4440    -0.5040 ca         1 R14      -0.090500
     17 CAQ         -8.8490    -0.6790    -0.1130 ca         1 R14      -0.123500
     18 CAR          8.7700    -0.4800     0.4640 ca         1 R14      -0.123500
     19 CAS         -2.3680    -2.7140    -0.4240 ca         1 R14      -0.147800
     20 CAT          2.3530    -2.6520    -0.2290 ca         1 R14      -0.147800
     21 CAU          0.0420    -5.5280    -0.6160 ca         1 R14      -0.052000
     22 CAV         -6.0010    -3.1570    -0.2370 cc         1 R14      -0.223100
     23 CAW          5.9210    -2.9660     0.4190 cc         1 R14      -0.223100
     24 CAX        -12.0270     6.3540     1.4010 c3         1 R14       0.171800
     25 CAY        -12.1200     5.9050    -0.9730 c3         1 R14       0.171800
     26 CAZ         13.1040     5.1810    -1.5850 c3         1 R14       0.171800
     27 CBA         11.6620     6.7730    -0.4890 c3         1 R14       0.171800
     28 CBB        -11.5050     2.9880    -0.0390 c3         1 R14      -0.163400
     29 CBC         11.5070     3.1120     0.0920 c3         1 R14      -0.163400
     30 CBD        -11.0470     4.3370     0.5010 c3         1 R14       0.181800
     31 CBE         11.0690     4.4340    -0.5220 c3         1 R14       0.181800
     32 NBF         -6.0270    -1.0000    -0.6590 nd         1 R14      -0.336000
     33 NBG          6.0080    -0.8820    -0.2760 nd         1 R14      -0.336000
     34 NBH         -4.8110    -1.3820    -0.7690 nc         1 R14      -0.180800
     35 NBI          4.8270    -1.3040    -0.5260 nc         1 R14      -0.180800
     36 NBJ         -0.0060    -2.7370    -0.3430 nb         1 R14      -0.641000
     37 NBK        -10.9060     0.6630     0.0990 ns         1 R14      -0.477100
     38 CBM        -10.4250     1.9310    -0.0030 c          1 R14       0.670600
     39 CBN         10.4130     2.0680     0.1100 c          1 R14       0.670600
     40 CBO        -10.2230    -0.5550     0.0790 ca         1 R14       0.076600
     41 CBP         10.0970    -0.2970     0.8470 ca         1 R14       0.076600
     42 CBQ         -8.2550    -1.9420    -0.1280 ca         1 R14      -0.081000
     43 CBR          8.1260    -1.6910     0.7220 ca         1 R14      -0.081000
     44 CBS         -3.5450    -3.3880    -0.5460 ca         1 R14       0.013800
     45 CBT          3.5510    -3.2980    -0.2430 ca         1 R14       0.013800
     46 CBU         -6.8130    -2.0550    -0.3310 cd         1 R14       0.328300
     47 CBV          6.7340    -1.8660     0.3120 cd         1 R14       0.328300
     48 CBW         -1.1680    -4.8490    -0.6010 ca         1 R14      -0.157300
     49 CBX          1.2290    -4.8180    -0.4960 ca         1 R14      -0.157300
     50 CBY         -1.1390    -3.4270    -0.4570 ca         1 R14       0.432100
     51 CBZ          1.1490    -3.3970    -0.3620 ca         1 R14       0.432100
     52 NCA        -12.0970     5.3330     0.3660 n3         1 R14      -0.740100
     53 NCB         12.1530     5.4020    -0.5040 n3         1 R14      -0.740100
     54 NCC         -4.7680    -2.6870    -0.5170 na         1 R14       0.163300
     55 NCD          4.7490    -2.5650    -0.1130 na         1 R14       0.163300
     56 HAA        -12.4990     6.6680     3.4820 hc         1 R14       0.036700
     57 HAAA       -13.5890     5.5500     2.6570 hc         1 R14       0.036700
     58 HAAB       -11.9740     5.0290     3.1350 hc         1 R14       0.036700
     59 HAB        -13.4560     6.8480    -2.3770 hc         1 R14       0.036700
     60 HABA       -14.2470     5.7030    -1.2900 hc         1 R14       0.036700
     61 HABB       -13.7790     7.3010    -0.7120 hc         1 R14       0.036700
     62 HAC         15.1800     5.5130    -2.0770 hc         1 R14       0.036700
     63 HACA        14.5080     6.7570    -1.0330 hc         1 R14       0.036700
     64 HACB        14.8890     5.1670    -0.3700 hc         1 R14       0.036700
     65 HAD         10.3050     6.6220     1.2140 hc         1 R14       0.036700
     66 HADA        11.9460     7.1190     1.6230 hc         1 R14       0.036700
     67 HADB        10.8390     8.2530     0.8450 hc         1 R14       0.036700
     68 HAG        -11.0100    -3.8370     0.3770 ha         1 R14       0.130000
     69 HAH         10.6620    -3.3340     2.2390 ha         1 R14       0.130000
     70 HAI        -12.0650    -1.6240     0.4020 ha         1 R14       0.127000
     71 HAJ         11.8030    -1.2100     1.7930 ha         1 R14       0.127000
     72 HAK         -8.5860    -4.0690     0.0280 ha         1 R14       0.126000
     73 HAL          8.3180    -3.6650     1.5740 ha         1 R14       0.126000
     74 HAM         -4.5230    -5.3170    -0.8280 ha         1 R14       0.144500
     75 HAN          4.6040    -5.1950    -0.4230 ha         1 R14       0.144500
     76 HAO         -2.4440    -6.5810    -0.8440 ha         1 R14       0.141000
     77 HAP          2.5630    -6.5190    -0.6150 ha         1 R14       0.141000
     78 HAQ         -8.2340     0.1950    -0.2470 ha         1 R14       0.187500
     79 HAR          8.2310     0.3070    -0.0370 ha         1 R14       0.187500
     80 HAS         -2.3370    -1.6410    -0.2960 ha         1 R14       0.185000
     81 HAT          2.2870    -1.5790    -0.1080 ha         1 R14       0.185000
     82 HAU          0.0610    -6.6070    -0.7200 ha         1 R14       0.142000
     83 HAV         -6.2010    -4.1820     0.0180 h4         1 R14       0.187000
     84 HAW          6.0720    -3.9470     0.8330 h4         1 R14       0.187000
     85 HAX        -12.6370     7.2020     1.0860 h1         1 R14       0.029950
     86 HAXA       -11.0020     6.7450     1.5130 h1         1 R14       0.029950
     87 HAY        -11.8720     5.1160    -1.6870 h1         1 R14       0.029950
     88 HAYA       -11.3410     6.6750    -1.0960 h1         1 R14       0.029950
     89 HAZ         12.7540     5.6360    -2.5260 h1         1 R14       0.029950
     90 HAZA        13.1710     4.1100    -1.7830 h1         1 R14       0.029950
     91 HBA         10.8790     6.9290    -1.2490 h1         1 R14       0.029950
     92 HBAA        12.4850     7.4330    -0.7740 h1         1 R14       0.029950
     93 HBB        -12.3880     2.6610     0.5140 hc         1 R14       0.065200
     94 HBBA       -11.8220     3.0820    -1.0840 hc         1 R14       0.065200
     95 HBC         12.3710     2.7010    -0.4380 hc         1 R14       0.065200
     96 HBCA        11.8430     3.2860     1.1190 hc         1 R14       0.065200
     97 HBD        -10.8010     4.2170     1.5580 h1         1 R14       0.049450
     98 HBDA       -10.1200     4.6560     0.0060 h1         1 R14       0.049450
     99 HBE         10.6810     4.2770    -1.5390 h1         1 R14       0.049450
    100 HBEA        10.2360     4.8240     0.0640 h1         1 R14       0.049450
    101 HNBK       -11.9080     0.5800     0.1820 hn         1 R14       0.314000
    102 HNBL        11.7810     0.8400     0.9340 hn         1 R14       0.314000
    103 NBL         10.8200     0.8760     0.6290 ns         1 R14      -0.477100
@<TRIPOS>BOND
     1     1    24 1   
     2     1    56 1   
     3     1    57 1   
     4     1    58 1   
     5     2    25 1   
     6     2    59 1   
     7     2    60 1   
     8     2    61 1   
     9     3    26 1   
    10     3    62 1   
    11     3    63 1   
    12     3    64 1   
    13     4    27 1   
    14     4    65 1   
    15     4    66 1   
    16     4    67 1   
    17     5    38 2   
    18     6    39 2   
    19     7     9 ar  
    20     7    11 ar  
    21     7    68 1   
    22     8    10 ar  
    23     8    12 ar  
    24     8    69 1   
    25     9    40 ar  
    26     9    70 1   
    27    10    41 ar  
    28    10    71 1   
    29    11    42 ar  
    30    11    72 1   
    31    12    43 ar  
    32    12    73 1   
    33    13    15 ar  
    34    13    44 ar  
    35    13    74 1   
    36    14    16 ar  
    37    14    45 ar  
    38    14    75 1   
    39    15    48 ar  
    40    15    76 1   
    41    16    49 ar  
    42    16    77 1   
    43    17    40 ar  
    44    17    42 ar  
    45    17    78 1   
    46    18    41 ar  
    47    18    43 ar  
    48    18    79 1   
    49    19    44 ar  
    50    19    50 ar  
    51    19    80 1   
    52    20    45 ar  
    53    20    51 ar  
    54    20    81 1   
    55    21    48 ar  
    56    21    49 ar  
    57    21    82 1   
    58    22    46 2   
    59    22    54 1   
    60    22    83 1   
    61    23    47 2   
    62    23    55 1   
    63    23    84 1   
    64    24    52 1   
    65    24    85 1   
    66    24    86 1   
    67    25    52 1   
    68    25    87 1   
    69    25    88 1   
    70    26    53 1   
    71    26    89 1   
    72    26    90 1   
    73    27    53 1   
    74    27    91 1   
    75    27    92 1   
    76    28    30 1   
    77    28    38 1   
    78    28    93 1   
    79    28    94 1   
    80    29    31 1   
    81    29    39 1   
    82    29    95 1   
    83    29    96 1   
    84    30    52 1   
    85    30    97 1   
    86    30    98 1   
    87    31    53 1   
    88    31    99 1   
    89    31   100 1   
    90    32    34 2   
    91    32    46 1   
    92    33    35 2   
    93    33    47 1   
    94    34    54 1   
    95    35    55 1   
    96    36    50 ar  
    97    36    51 ar  
    98    37    38 1   
    99    37    40 1   
   100    37   101 1   
   101    39   103 1   
   102    41   103 1   
   103    42    46 1   
   104    43    47 1   
   105    44    54 1   
   106    45    55 1   
   107    48    50 ar  
   108    49    51 ar  
   109   102   103 1   
@<TRIPOS>SUBSTRUCTURE
     1 R14         1 TEMP              0 ****  ****    0 ROOT
