@<TRIPOS>MOLECULE
R14
  103   109     1     0     0
SMALL
No Charge or Current Charge


@<TRIPOS>ATOM
      1 CAA        -12.3720     5.7410     2.3100 c3         1 R14      -0.089600
      2 CAB        -15.1660     6.0570    -1.1160 c3         1 R14      -0.089600
      3 CAC         15.1200     6.1100    -1.2010 c3         1 R14      -0.089600
      4 CAD         12.3530     5.7810     2.2460 c3         1 R14      -0.089600
      5 OAE        -10.0930     1.9430    -1.5090 o          1 R14      -0.569600
      6 OAF         10.0560     1.9830    -1.5620 o          1 R14      -0.569600
      7 CAG        -10.1200    -2.4300     1.7250 ca         1 R14      -0.084000
      8 CAH         10.1190    -2.3940     1.6670 ca         1 R14      -0.084000
      9 CAI        -10.9080    -1.3470     1.3080 ca         1 R14      -0.167500
     10 CAJ         10.9000    -1.3080     1.2460 ca         1 R14      -0.167500
     11 CAK         -8.7940    -2.5480     1.2830 ca         1 R14      -0.134500
     12 CAL          8.7910    -2.5160     1.2330 ca         1 R14      -0.134500
     13 CAM         -3.6450    -4.4270    -0.5420 ca         1 R14      -0.118000
     14 CAN          3.6380    -4.4140    -0.5620 ca         1 R14      -0.118000
     15 CAO         -2.4390    -5.1450    -0.5890 ca         1 R14      -0.072500
     16 CAP          2.4350    -5.1360    -0.6030 ca         1 R14      -0.072500
     17 CAQ         -9.0430    -0.4930     0.0050 ca         1 R14      -0.105500
     18 CAR          9.0250    -0.4610    -0.0450 ca         1 R14      -0.105500
     19 CAS         -2.3930    -2.3460    -0.4220 ca         1 R14      -0.064500
     20 CAT          2.3790    -2.3370    -0.4350 ca         1 R14      -0.064500
     21 CAU         -0.0020    -5.1740    -0.5980 ca         1 R14      -0.034000
     22 CAV         -5.9480    -2.6950     0.2750 cc         1 R14      -0.190500
     23 CAW          5.9390    -2.6740     0.2420 cc         1 R14      -0.190500
     24 CAX        -12.8510     6.0890     0.8850 c3         1 R14       0.171800
     25 CAY        -13.8200     5.3170    -1.2680 c3         1 R14       0.171800
     26 CAZ         13.7750     5.3670    -1.3440 c3         1 R14       0.171800
     27 CBA         12.8200     6.1320     0.8170 c3         1 R14       0.171800
     28 CBB        -12.2950     2.6910    -0.8970 c3         1 R14      -0.163400
     29 CBC         12.2600     2.7360    -0.9650 c3         1 R14      -0.163400
     30 CBD        -11.9810     4.0300    -0.1990 c3         1 R14       0.181800
     31 CBE         11.9480     4.0730    -0.2630 c3         1 R14       0.181800
     32 NBF         -6.2290    -0.7880    -0.8920 nd         1 R14      -0.336000
     33 NBG          6.2070    -0.7660    -0.9270 nd         1 R14      -0.336000
     34 NBH         -4.9970    -1.1620    -1.1260 nc         1 R14      -0.180800
     35 NBI          4.9750    -1.1440    -1.1540 nc         1 R14      -0.180800
     36 NBJ         -0.0070    -2.3660    -0.4300 nb         1 R14      -0.641000
     37 NBK        -11.2410     0.6980     0.0670 ns         1 R14      -0.151000
     38 CBM        -11.0860     1.7590    -0.8150 c          1 R14       0.603600
     39 CBN         11.0550     1.8010    -0.8760 c          1 R14       0.603600
     40 CBO        -10.3820    -0.3720     0.4430 ca         1 R14      -0.016000
     41 CBP         10.3660    -0.3340     0.3850 ca         1 R14      -0.016000
     42 CBQ         -8.2380    -1.5800     0.4190 ca         1 R14      -0.081000
     43 CBR          8.2260    -1.5510     0.3730 ca         1 R14      -0.081000
     44 CBS         -3.6320    -3.0200    -0.4570 ca         1 R14       0.013800
     45 CBT          3.6200    -3.0070    -0.4770 ca         1 R14       0.013800
     46 CBU         -6.8380    -1.7030    -0.0420 cd         1 R14       0.263000
     47 CBV          6.8240    -1.6790    -0.0810 cd         1 R14       0.263000
     48 CBW         -1.2110    -4.4600    -0.5520 ca         1 R14      -0.092000
     49 CBX          1.2040    -4.4560    -0.5580 ca         1 R14      -0.092000
     50 CBY         -1.1760    -3.0480    -0.4680 ca         1 R14       0.301500
     51 CBZ          1.1640    -3.0440    -0.4740 ca         1 R14       0.301500
     52 NCA        -13.1620     4.9180     0.0120 n3         1 R14      -0.740100
     53 NCB         13.1280     4.9640    -0.0600 n3         1 R14      -0.740100
     54 NCC         -4.8310    -2.3010    -0.4080 na         1 R14       0.214000
     55 NCD          4.8180    -2.2830    -0.4350 na         1 R14       0.214000
     56 HAA        -12.3450     6.6480     2.9260 hc         1 R14       0.036700
     57 HAAA       -13.0540     5.0260     2.7850 hc         1 R14       0.036700
     58 HAAB       -11.3610     5.3170     2.3040 hc         1 R14       0.036700
     59 HAB        -15.6540     6.1480    -2.0940 hc         1 R14       0.036700
     60 HABA       -15.8380     5.5050    -0.4490 hc         1 R14       0.036700
     61 HABB       -15.0270     7.0700    -0.7210 hc         1 R14       0.036700
     62 HAC         15.6000     6.2030    -2.1820 hc         1 R14       0.036700
     63 HACA        14.9820     7.1220    -0.8040 hc         1 R14       0.036700
     64 HACB        15.7990     5.5580    -0.5400 hc         1 R14       0.036700
     65 HAD         11.3440     5.3550     2.2470 hc         1 R14       0.036700
     66 HADA        13.0410     5.0680     2.7140 hc         1 R14       0.036700
     67 HADB        12.3290     6.6870     2.8630 hc         1 R14       0.036700
     68 HAG        -10.5390    -3.1810     2.3920 ha         1 R14       0.112000
     69 HAH         10.5440    -3.1440     2.3320 ha         1 R14       0.112000
     70 HAI        -11.9350    -1.2690     1.6580 ha         1 R14       0.109000
     71 HAJ         11.9290    -1.2260     1.5910 ha         1 R14       0.109000
     72 HAK         -8.2030    -3.3950     1.6200 ha         1 R14       0.108000
     73 HAL          8.2050    -3.3660     1.5730 ha         1 R14       0.108000
     74 HAM         -4.5870    -4.9690    -0.5800 ha         1 R14       0.126500
     75 HAN          4.5820    -4.9530    -0.6050 ha         1 R14       0.126500
     76 HAO         -2.4620    -6.2310    -0.6560 ha         1 R14       0.123000
     77 HAP          2.4610    -6.2220    -0.6700 ha         1 R14       0.123000
     78 HAQ         -8.6120     0.2530    -0.6530 ha         1 R14       0.169500
     79 HAR          8.5870     0.2840    -0.7010 ha         1 R14       0.169500
     80 HAS         -2.3650    -1.2620    -0.3520 ha         1 R14       0.167000
     81 HAT          2.3470    -1.2530    -0.3650 ha         1 R14       0.167000
     82 HAU         -0.0000    -6.2600    -0.6630 ha         1 R14       0.124000
     83 HAV         -6.0110    -3.5780     0.8930 h4         1 R14       0.169000
     84 HAW          6.0090    -3.5570     0.8590 h4         1 R14       0.169000
     85 HAX        -13.7490     6.7040     1.0150 h1         1 R14       0.029950
     86 HAXA       -12.0950     6.7260     0.4060 h1         1 R14       0.029950
     87 HAY        -14.0360     4.4260    -1.8690 h1         1 R14       0.029950
     88 HAYA       -13.1400     5.9440    -1.8610 h1         1 R14       0.029950
     89 HAZ         13.0890     5.9930    -1.9310 h1         1 R14       0.029950
     90 HAZA        13.9890     4.4770    -1.9480 h1         1 R14       0.029950
     91 HBA         12.0590     6.7680     0.3450 h1         1 R14       0.029950
     92 HBAA        13.7180     6.7500     0.9410 h1         1 R14       0.029950
     93 HBB        -13.1600     2.2340    -0.4020 hc         1 R14       0.065200
     94 HBBA       -12.5130     2.8750    -1.9540 hc         1 R14       0.065200
     95 HBC         12.4700     2.9220    -2.0240 hc         1 R14       0.065200
     96 HBCA        13.1300     2.2810    -0.4780 hc         1 R14       0.065200
     97 HBD        -11.5340     3.7730     0.7700 h1         1 R14       0.049450
     98 HBDA       -11.2070     4.5580    -0.7740 h1         1 R14       0.049450
     99 HBE         11.1680     4.6000    -0.8310 h1         1 R14       0.049450
    100 HBEA        11.5090     3.8130     0.7090 h1         1 R14       0.049450
    101 HNBK       -12.1360     0.6840     0.5400 hn         1 R14       0.147500
    102 HNBL        12.1170     0.7260     0.4710 hn         1 R14       0.147500
    103 NBL         11.2190     0.7380     0.0040 ns         1 R14      -0.151000
@<TRIPOS>BOND
     1     1    24 1   
     2     1    56 1   
     3     1    57 1   
     4     1    58 1   
     5     2    25 1   
     6     2    59 1   
     7     2    60 1   
     8     2    61 1   
     9     3    26 1   
    10     3    62 1   
    11     3    63 1   
    12     3    64 1   
    13     4    27 1   
    14     4    65 1   
    15     4    66 1   
    16     4    67 1   
    17     5    38 2   
    18     6    39 2   
    19     7     9 ar  
    20     7    11 ar  
    21     7    68 1   
    22     8    10 ar  
    23     8    12 ar  
    24     8    69 1   
    25     9    40 ar  
    26     9    70 1   
    27    10    41 ar  
    28    10    71 1   
    29    11    42 ar  
    30    11    72 1   
    31    12    43 ar  
    32    12    73 1   
    33    13    15 ar  
    34    13    44 ar  
    35    13    74 1   
    36    14    16 ar  
    37    14    45 ar  
    38    14    75 1   
    39    15    48 ar  
    40    15    76 1   
    41    16    49 ar  
    42    16    77 1   
    43    17    40 ar  
    44    17    42 ar  
    45    17    78 1   
    46    18    41 ar  
    47    18    43 ar  
    48    18    79 1   
    49    19    44 ar  
    50    19    50 ar  
    51    19    80 1   
    52    20    45 ar  
    53    20    51 ar  
    54    20    81 1   
    55    21    48 ar  
    56    21    49 ar  
    57    21    82 1   
    58    22    46 2   
    59    22    54 1   
    60    22    83 1   
    61    23    47 2   
    62    23    55 1   
    63    23    84 1   
    64    24    52 1   
    65    24    85 1   
    66    24    86 1   
    67    25    52 1   
    68    25    87 1   
    69    25    88 1   
    70    26    53 1   
    71    26    89 1   
    72    26    90 1   
    73    27    53 1   
    74    27    91 1   
    75    27    92 1   
    76    28    30 1   
    77    28    38 1   
    78    28    93 1   
    79    28    94 1   
    80    29    31 1   
    81    29    39 1   
    82    29    95 1   
    83    29    96 1   
    84    30    52 1   
    85    30    97 1   
    86    30    98 1   
    87    31    53 1   
    88    31    99 1   
    89    31   100 1   
    90    32    34 2   
    91    32    46 1   
    92    33    35 2   
    93    33    47 1   
    94    34    54 1   
    95    35    55 1   
    96    36    50 ar  
    97    36    51 ar  
    98    37    38 1   
    99    37    40 1   
   100    37   101 1   
   101    39   103 1   
   102    41   103 1   
   103    42    46 1   
   104    43    47 1   
   105    44    54 1   
   106    45    55 1   
   107    48    50 ar  
   108    49    51 ar  
   109   102   103 1   
@<TRIPOS>SUBSTRUCTURE
     1 R14         1 TEMP              0 ****  ****    0 ROOT
