@<TRIPOS>MOLECULE
R15
   61    62     1     0     0
SMALL
No Charge or Current Charge


@<TRIPOS>ATOM
      1 S1           8.3470    60.8570    30.5370 sy         1 R15       1.199800
      2 S2          17.0980    58.7110    18.9900 sy         1 R15       1.199800
      3 N3          16.2610    59.3030    20.3100 ns         1 R15      -0.608300
      4 N5           8.9050    60.6660    28.9730 ns         1 R15      -0.608300
      5 C7           9.3320    59.5280    28.3940 c          1 R15       0.674100
      6 C8          16.4650    58.9990    21.6060 c          1 R15       0.674100
      7 C9           6.8840    59.8080    30.6420 ca         1 R15      -0.282000
      8 C10         18.8030    59.2420    19.2410 ca         1 R15      -0.282000
      9 O11          9.3840    60.3090    31.4190 o          1 R15      -0.526000
     10 O12         17.0420    57.2480    19.0840 o          1 R15      -0.526000
     11 O13         16.5410    59.4270    17.8370 o          1 R15      -0.526000
     12 O14          7.9330    62.2610    30.6220 o          1 R15      -0.526000
     13 C15          6.9960    58.4840    31.1230 ca         1 R15       0.020500
     14 C17         19.7250    58.3840    19.8800 ca         1 R15       0.020500
     15 O19          9.3740    58.4460    28.9520 o          1 R15      -0.606100
     16 O20         17.3100    58.2200    22.0050 o          1 R15      -0.606100
     17 N21          9.7060    59.7210    27.0930 ns         1 R15      -0.507400
     18 N22         15.6140    59.6780    22.4350 ns         1 R15      -0.507400
     19 C23          5.8560    57.6650    31.1960 ca         1 R15       0.094500
     20 C24         21.0510    58.8030    20.0830 ca         1 R15       0.094500
     21 Cl25         5.9980    56.0150    31.7930 cl         1 R15      -0.187500
     22 Cl26        22.1980    57.7320    20.8810 cl         1 R15      -0.187500
     23 C27          5.6250    60.3000    30.2340 ca         1 R15      -0.020500
     24 C29         19.2200    60.5210    18.8120 ca         1 R15      -0.020500
     25 C31          4.4900    59.4740    30.3110 ca         1 R15      -0.125000
     26 C33         20.5490    60.9320    19.0180 ca         1 R15      -0.125000
     27 C41          4.6040    58.1570    30.7920 ca         1 R15      -0.049500
     28 C43         21.4640    60.0740    19.6530 ca         1 R15      -0.049500
     29 C35         15.5870    59.5380    23.8920 c3         1 R15       0.111500
     30 C38         10.2420    58.6740    26.2180 c3         1 R15       0.111500
     31 C45         14.8380    58.2640    24.3380 c3         1 R15      -0.104400
     32 C48         11.7110    58.3160    26.5360 c3         1 R15      -0.104400
     33 C51         14.8290    58.0390    25.8710 c3         1 R15      -0.072400
     34 C54         12.6970    59.4980    26.3590 c3         1 R15      -0.072400
     35 C57         14.1680    59.1620    26.7130 c3         1 R15      -0.075400
     36 H5           8.8670    61.5250    28.4560 hn         1 R15       0.340000
     37 H3          15.5650    59.9740    20.0410 hn         1 R15       0.340000
     38 H21          9.6260    60.6580    26.7230 hn         1 R15       0.315500
     39 H22         14.9500    60.3060    22.0020 hn         1 R15       0.315500
     40 H15          7.9580    58.0820    31.4330 ha         1 R15       0.165500
     41 H27          5.5220    61.3160    29.8560 ha         1 R15       0.131000
     42 H17         19.4220    57.3980    20.2270 ha         1 R15       0.165500
     43 H29         18.5210    61.1980    18.3230 ha         1 R15       0.131000
     44 H381         9.6190    57.7750    26.3190 h1         1 R15       0.057450
     45 H382        10.1670    59.0150    25.1770 h1         1 R15       0.057450
     46 H351        16.6190    59.5120    24.2690 h1         1 R15       0.057450
     47 H352        15.0960    60.4240    24.3140 h1         1 R15       0.057450
     48 H41          3.7250    57.5200    30.8510 ha         1 R15       0.132000
     49 H43         22.4910    60.3940    19.8120 ha         1 R15       0.132000
     50 H31          3.5210    59.8540    29.9970 ha         1 R15       0.122500
     51 H33         20.8690    61.9180    18.6870 ha         1 R15       0.122500
     52 H451        13.8090    58.2960    23.9620 hc         1 R15       0.054950
     53 H452        15.3100    57.3930    23.8680 hc         1 R15       0.054950
     54 H481        11.7780    57.9350    27.5620 hc         1 R15       0.054950
     55 H482        12.0060    57.4930    25.8750 hc         1 R15       0.054950
     56 H511        14.3300    57.0860    26.0840 hc         1 R15       0.039200
     57 H512        15.8650    57.9160    26.2120 hc         1 R15       0.039200
     58 H541        12.6400    59.8700    25.3290 hc         1 R15       0.039200
     59 H542        12.3780    60.3270    27.0020 hc         1 R15       0.039200
     60 H571        14.2150    58.8740    27.7710 hc         1 R15       0.042200
     61 H572        14.7670    60.0760    26.6250 hc         1 R15       0.042200
@<TRIPOS>BOND
     1     1     4 1   
     2     1     7 1   
     3     1     9 2   
     4     1    12 2   
     5     2     3 1   
     6     2     8 1   
     7     2    10 2   
     8     2    11 2   
     9     3     6 1   
    10     3    37 1   
    11     4     5 1   
    12     4    36 1   
    13     5    15 2   
    14     5    17 1   
    15     6    16 2   
    16     6    18 1   
    17     7    13 ar  
    18     7    23 ar  
    19     8    14 ar  
    20     8    24 ar  
    21    13    19 ar  
    22    13    40 1   
    23    14    20 ar  
    24    14    42 1   
    25    17    30 1   
    26    17    38 1   
    27    18    29 1   
    28    18    39 1   
    29    19    21 1   
    30    19    27 ar  
    31    20    22 1   
    32    20    28 ar  
    33    23    25 ar  
    34    23    41 1   
    35    24    26 ar  
    36    24    43 1   
    37    25    27 ar  
    38    25    50 1   
    39    26    28 ar  
    40    26    51 1   
    41    27    48 1   
    42    28    49 1   
    43    29    31 1   
    44    29    46 1   
    45    29    47 1   
    46    30    32 1   
    47    30    44 1   
    48    30    45 1   
    49    31    33 1   
    50    31    52 1   
    51    31    53 1   
    52    32    34 1   
    53    32    54 1   
    54    32    55 1   
    55    33    35 1   
    56    33    56 1   
    57    33    57 1   
    58    34    35 1   
    59    34    58 1   
    60    34    59 1   
    61    35    60 1   
    62    35    61 1   
@<TRIPOS>SUBSTRUCTURE
     1 R15         1 TEMP              0 ****  ****    0 ROOT
