@<TRIPOS>MOLECULE
R15
   61    62     1     0     0
SMALL
abcg2


@<TRIPOS>ATOM
      1 S1           8.3930    60.4420    30.8890 sy         1 R15       1.199800
      2 S2          17.0600    58.3950    19.1080 sy         1 R15       1.199800
      3 N3          16.1480    59.2020    20.2350 ns         1 R15      -0.608300
      4 N5           9.0810    60.6090    29.3860 ns         1 R15      -0.608300
      5 C7           9.4830    59.5140    28.6210 c          1 R15       0.674100
      6 C8          16.3500    59.0540    21.6060 c          1 R15       0.674100
      7 C9           6.8910    59.5470    30.5990 ca         1 R15      -0.282000
      8 C10         18.7020    59.0250    19.3190 ca         1 R15      -0.282000
      9 O11          9.2530    59.6450    31.7360 o          1 R15      -0.526000
     10 O12         17.0660    56.9780    19.4010 o          1 R15      -0.526000
     11 O13         16.5460    58.8670    17.8360 o          1 R15      -0.526000
     12 O14          8.0530    61.8000    31.2710 o          1 R15      -0.526000
     13 C15          6.8390    58.1930    30.8880 ca         1 R15       0.020500
     14 C17         19.6460    58.2510    19.9730 ca         1 R15       0.020500
     15 O19          9.4150    58.3830    29.0670 o          1 R15      -0.606100
     16 O20         17.2610    58.3670    22.0300 o          1 R15      -0.606100
     17 N21          9.9140    59.8370    27.3940 ns         1 R15      -0.507400
     18 N22         15.4830    59.7430    22.3620 ns         1 R15      -0.507400
     19 C23          5.6470    57.5260    30.6550 ca         1 R15       0.094500
     20 C24         20.9270    58.7620    20.1010 ca         1 R15       0.094500
     21 CL25         5.5460    55.8370    31.0080 cl         1 R15      -0.187500
     22 CL26        22.1310    57.8210    20.9100 cl         1 R15      -0.187500
     23 C27          5.7970    60.2370    30.0960 ca         1 R15      -0.020500
     24 C29         19.0050    60.2750    18.7960 ca         1 R15      -0.020500
     25 C31          4.6200    59.5420    29.8700 ca         1 R15      -0.125000
     26 C33         20.2940    60.7610    18.9450 ca         1 R15      -0.125000
     27 C41          4.5380    58.1850    30.1470 ca         1 R15      -0.049500
     28 C43         21.2620    60.0090    19.5950 ca         1 R15      -0.049500
     29 C35         15.5120    59.6720    23.8100 c3         1 R15       0.111500
     30 C38         10.4430    58.8410    26.4820 c3         1 R15       0.111500
     31 C45         14.7960    58.4490    24.3700 c3         1 R15      -0.104400
     32 C48         11.9240    58.5470    26.6860 c3         1 R15      -0.104400
     33 C51         14.9110    58.3370    25.8880 c3         1 R15      -0.072400
     34 C54         12.8190    59.7470    26.3990 c3         1 R15      -0.072400
     35 C57         14.2980    59.4950    26.6750 c3         1 R15      -0.075400
     36 H5           9.0080    61.5350    28.9810 hn         1 R15       0.340000
     37 H3          15.4770    59.8620    19.8610 hn         1 R15       0.340000
     38 H21          9.9960    60.8060    27.1350 hn         1 R15       0.315500
     39 H22         14.6950    60.1970    21.9290 hn         1 R15       0.315500
     40 H15          7.6960    57.6680    31.2840 ha         1 R15       0.165500
     41 H27          5.8500    61.2960    29.8820 ha         1 R15       0.131000
     42 H17         19.3980    57.2780    20.3720 ha         1 R15       0.165500
     43 H29         18.2610    60.8650    18.2810 ha         1 R15       0.131000
     44 H381         9.8570    57.9290    26.5860 h1         1 R15       0.057450
     45 H382        10.2720    59.2090    25.4690 h1         1 R15       0.057450
     46 H351        16.5510    59.6840    24.1400 h1         1 R15       0.057450
     47 H352        15.0560    60.5910    24.1790 h1         1 R15       0.057450
     48 H41          3.6170    57.6480    29.9700 ha         1 R15       0.132000
     49 H43         22.2680    60.3900    19.7040 ha         1 R15       0.132000
     50 H31          3.7550    60.0600    29.4790 ha         1 R15       0.122500
     51 H33         20.5520    61.7320    18.5460 ha         1 R15       0.122500
     52 H451        13.7450    58.4760    24.0650 hc         1 R15       0.054950
     53 H452        15.2240    57.5510    23.9180 hc         1 R15       0.054950
     54 H481        12.0880    58.1920    27.7080 hc         1 R15       0.054950
     55 H482        12.1870    57.7140    26.0280 hc         1 R15       0.054950
     56 H511        14.4510    57.3970    26.2030 hc         1 R15       0.039200
     57 H512        15.9690    58.2510    26.1580 hc         1 R15       0.039200
     58 H541        12.6750    60.0590    25.3580 hc         1 R15       0.039200
     59 H542        12.4970    60.5970    27.0090 hc         1 R15       0.039200
     60 H571        14.4300    59.2940    27.7430 hc         1 R15       0.042200
     61 H572        14.8560    60.4140    26.4770 hc         1 R15       0.042200
@<TRIPOS>BOND
     1     1     4 1   
     2     1     7 1   
     3     1     9 2   
     4     1    12 2   
     5     2     3 1   
     6     2     8 1   
     7     2    10 2   
     8     2    11 2   
     9     3     6 1   
    10     3    37 1   
    11     4     5 1   
    12     4    36 1   
    13     5    15 2   
    14     5    17 1   
    15     6    16 2   
    16     6    18 1   
    17     7    13 ar  
    18     7    23 ar  
    19     8    14 ar  
    20     8    24 ar  
    21    13    19 ar  
    22    13    40 1   
    23    14    20 ar  
    24    14    42 1   
    25    17    30 1   
    26    17    38 1   
    27    18    29 1   
    28    18    39 1   
    29    19    21 1   
    30    19    27 ar  
    31    20    22 1   
    32    20    28 ar  
    33    23    25 ar  
    34    23    41 1   
    35    24    26 ar  
    36    24    43 1   
    37    25    27 ar  
    38    25    50 1   
    39    26    28 ar  
    40    26    51 1   
    41    27    48 1   
    42    28    49 1   
    43    29    31 1   
    44    29    46 1   
    45    29    47 1   
    46    30    32 1   
    47    30    44 1   
    48    30    45 1   
    49    31    33 1   
    50    31    52 1   
    51    31    53 1   
    52    32    34 1   
    53    32    54 1   
    54    32    55 1   
    55    33    35 1   
    56    33    56 1   
    57    33    57 1   
    58    34    35 1   
    59    34    58 1   
    60    34    59 1   
    61    35    60 1   
    62    35    61 1   
@<TRIPOS>SUBSTRUCTURE
     1 R15         1 TEMP              0 ****  ****    0 ROOT
