@<TRIPOS>MOLECULE
R16
   50    49     1     0     0
SMALL
No Charge or Current Charge


@<TRIPOS>ATOM
      1 C27          9.6530    -0.3370    -0.0210 c3         1 R16      -0.088100
      2 C28          8.3610     0.5020    -0.0120 c3         1 R16      -0.075400
      3 C29          7.0800    -0.3610    -0.0190 c3         1 R16      -0.075900
      4 C30          5.7840     0.4800    -0.0110 c3         1 R16      -0.074400
      5 C31          4.5040    -0.3830    -0.0180 c3         1 R16      -0.074400
      6 C32          3.2080     0.4570    -0.0090 c3         1 R16      -0.074400
      7 C33          1.9270    -0.4060    -0.0160 c3         1 R16      -0.074400
      8 C34          0.6320     0.4350    -0.0080 c3         1 R16      -0.074400
      9 C35         -0.6490    -0.4280    -0.0160 c3         1 R16      -0.074400
     10 C36         -1.9440     0.4120    -0.0080 c3         1 R16      -0.074400
     11 C37         -3.2250    -0.4510    -0.0150 c3         1 R16      -0.074400
     12 C38         -4.5210     0.3900    -0.0080 c3         1 R16      -0.074400
     13 C39         -5.8010    -0.4740    -0.0160 c3         1 R16      -0.074400
     14 C40         -7.0970     0.3670    -0.0080 c3         1 R16      -0.075900
     15 C41         -8.3770    -0.4960    -0.0160 c3         1 R16      -0.075400
     16 C42         -9.6700     0.3420    -0.0090 c3         1 R16      -0.088100
     17 H271         9.7020    -0.9850     0.8620 hc         1 R16       0.031367
     18 H272         9.7000    -0.9680    -0.9170 hc         1 R16       0.031367
     19 H273        10.5330     0.3170    -0.0160 hc         1 R16       0.031367
     20 H281         8.3600     1.1460     0.8760 hc         1 R16       0.036700
     21 H282         8.3590     1.1630    -0.8880 hc         1 R16       0.036700
     22 H291         7.0850    -1.0060    -0.9080 hc         1 R16       0.036700
     23 H292         7.0860    -1.0220     0.8560 hc         1 R16       0.036700
     24 H301         5.7790     1.1240     0.8770 hc         1 R16       0.036700
     25 H302         5.7780     1.1410    -0.8860 hc         1 R16       0.036700
     26 H311         4.5090    -1.0280    -0.9060 hc         1 R16       0.036700
     27 H312         4.5100    -1.0440     0.8580 hc         1 R16       0.036700
     28 H321         3.2030     1.1020     0.8790 hc         1 R16       0.036700
     29 H322         3.2020     1.1180    -0.8850 hc         1 R16       0.036700
     30 H331         1.9330    -1.0510    -0.9040 hc         1 R16       0.036950
     31 H332         1.9330    -1.0670     0.8600 hc         1 R16       0.036950
     32 H341         0.6260     1.0790     0.8800 hc         1 R16       0.036700
     33 H342         0.6260     1.0960    -0.8840 hc         1 R16       0.036700
     34 H351        -0.6430    -1.0730    -0.9030 hc         1 R16       0.036700
     35 H352        -0.6430    -1.0890     0.8600 hc         1 R16       0.036700
     36 H361        -1.9500     1.0570     0.8800 hc         1 R16       0.036950
     37 H362        -1.9500     1.0730    -0.8840 hc         1 R16       0.036950
     38 H371        -3.2190    -1.0960    -0.9030 hc         1 R16       0.036700
     39 H372        -3.2190    -1.1120     0.8610 hc         1 R16       0.036700
     40 H381        -4.5260     1.0340     0.8800 hc         1 R16       0.036700
     41 H382        -4.5260     1.0500    -0.8840 hc         1 R16       0.036700
     42 H391        -5.7950    -1.1180    -0.9040 hc         1 R16       0.036700
     43 H392        -5.7950    -1.1350     0.8600 hc         1 R16       0.036700
     44 H401        -7.1030     1.0120     0.8800 hc         1 R16       0.036700
     45 H402        -7.1030     1.0280    -0.8840 hc         1 R16       0.036700
     46 H411        -8.3760    -1.1410    -0.9040 hc         1 R16       0.036700
     47 H412        -8.3760    -1.1570     0.8600 hc         1 R16       0.036700
     48 H421        -9.7190     0.9730     0.8870 hc         1 R16       0.031367
     49 H422        -9.7180     0.9900    -0.8930 hc         1 R16       0.031367
     50 H423       -10.5500    -0.3120    -0.0150 hc         1 R16       0.031367
@<TRIPOS>BOND
     1     1     2 1   
     2     1    17 1   
     3     1    18 1   
     4     1    19 1   
     5     2     3 1   
     6     2    20 1   
     7     2    21 1   
     8     3     4 1   
     9     3    22 1   
    10     3    23 1   
    11     4     5 1   
    12     4    24 1   
    13     4    25 1   
    14     5     6 1   
    15     5    26 1   
    16     5    27 1   
    17     6     7 1   
    18     6    28 1   
    19     6    29 1   
    20     7     8 1   
    21     7    30 1   
    22     7    31 1   
    23     8     9 1   
    24     8    32 1   
    25     8    33 1   
    26     9    10 1   
    27     9    34 1   
    28     9    35 1   
    29    10    11 1   
    30    10    36 1   
    31    10    37 1   
    32    11    12 1   
    33    11    38 1   
    34    11    39 1   
    35    12    13 1   
    36    12    40 1   
    37    12    41 1   
    38    13    14 1   
    39    13    42 1   
    40    13    43 1   
    41    14    15 1   
    42    14    44 1   
    43    14    45 1   
    44    15    16 1   
    45    15    46 1   
    46    15    47 1   
    47    16    48 1   
    48    16    49 1   
    49    16    50 1   
@<TRIPOS>SUBSTRUCTURE
     1 R16         1 TEMP              0 ****  ****    0 ROOT
