@<TRIPOS>MOLECULE
R16
   50    49     1     0     0
SMALL
abcg2


@<TRIPOS>ATOM
      1 C27          9.5300    -0.3450    -0.0200 c3         1 R16      -0.088100
      2 C28          8.2630     0.5000    -0.0150 c3         1 R16      -0.075400
      3 C29          6.9930    -0.3430    -0.0220 c3         1 R16      -0.075900
      4 C30          5.7150     0.4850    -0.0100 c3         1 R16      -0.074400
      5 C31          4.4500    -0.3640    -0.0170 c3         1 R16      -0.074400
      6 C32          3.1680     0.4600    -0.0080 c3         1 R16      -0.074400
      7 C33          1.9050    -0.3930    -0.0150 c3         1 R16      -0.074400
      8 C34          0.6230     0.4300    -0.0060 c3         1 R16      -0.074400
      9 C35         -0.6400    -0.4230    -0.0150 c3         1 R16      -0.074400
     10 C36         -1.9220     0.4000    -0.0080 c3         1 R16      -0.074400
     11 C37         -3.1850    -0.4530    -0.0160 c3         1 R16      -0.074400
     12 C38         -4.4670     0.3710    -0.0090 c3         1 R16      -0.074400
     13 C39         -5.7310    -0.4790    -0.0170 c3         1 R16      -0.074400
     14 C40         -7.0110     0.3490    -0.0090 c3         1 R16      -0.075900
     15 C41         -8.2800    -0.4950    -0.0160 c3         1 R16      -0.075400
     16 C42         -9.5470     0.3490    -0.0090 c3         1 R16      -0.088100
     17 H271         9.5710    -0.9960     0.8550 hc         1 R16       0.031367
     18 H272         9.5720    -0.9820    -0.9060 hc         1 R16       0.031367
     19 H273        10.4280     0.2730    -0.0150 hc         1 R16       0.031367
     20 H281         8.2590     1.1510     0.8650 hc         1 R16       0.036700
     21 H282         8.2600     1.1650    -0.8840 hc         1 R16       0.036700
     22 H291         6.9970    -0.9930    -0.9050 hc         1 R16       0.036700
     23 H292         7.0000    -1.0140     0.8450 hc         1 R16       0.036700
     24 H301         5.7110     1.1350     0.8720 hc         1 R16       0.036700
     25 H302         5.7070     1.1540    -0.8780 hc         1 R16       0.036700
     26 H311         4.4550    -1.0170    -0.8970 hc         1 R16       0.036700
     27 H312         4.4570    -1.0310     0.8530 hc         1 R16       0.036700
     28 H321         3.1610     1.1110     0.8730 hc         1 R16       0.036700
     29 H322         3.1600     1.1280    -0.8770 hc         1 R16       0.036700
     30 H331         1.9130    -1.0440    -0.8960 hc         1 R16       0.036950
     31 H332         1.9140    -1.0600     0.8540 hc         1 R16       0.036950
     32 H341         0.6150     1.0800     0.8760 hc         1 R16       0.036700
     33 H342         0.6150     1.0990    -0.8750 hc         1 R16       0.036700
     34 H351        -0.6310    -1.0740    -0.8970 hc         1 R16       0.036700
     35 H352        -0.6320    -1.0910     0.8540 hc         1 R16       0.036700
     36 H361        -1.9300     1.0500     0.8740 hc         1 R16       0.036950
     37 H362        -1.9300     1.0680    -0.8760 hc         1 R16       0.036950
     38 H371        -3.1780    -1.1040    -0.8980 hc         1 R16       0.036700
     39 H372        -3.1780    -1.1210     0.8530 hc         1 R16       0.036700
     40 H381        -4.4730     1.0220     0.8730 hc         1 R16       0.036700
     41 H382        -4.4730     1.0390    -0.8780 hc         1 R16       0.036700
     42 H391        -5.7260    -1.1300    -0.8980 hc         1 R16       0.036700
     43 H392        -5.7250    -1.1460     0.8530 hc         1 R16       0.036700
     44 H401        -7.0160     1.0010     0.8720 hc         1 R16       0.036700
     45 H402        -7.0160     1.0170    -0.8790 hc         1 R16       0.036700
     46 H411        -8.2760    -1.1470    -0.8950 hc         1 R16       0.036700
     47 H412        -8.2750    -1.1600     0.8540 hc         1 R16       0.036700
     48 H421        -9.5890     0.9870     0.8760 hc         1 R16       0.031367
     49 H422        -9.5900     0.9990    -0.8850 hc         1 R16       0.031367
     50 H423       -10.4450    -0.2700    -0.0130 hc         1 R16       0.031367
@<TRIPOS>BOND
     1     1     2 1   
     2     1    17 1   
     3     1    18 1   
     4     1    19 1   
     5     2     3 1   
     6     2    20 1   
     7     2    21 1   
     8     3     4 1   
     9     3    22 1   
    10     3    23 1   
    11     4     5 1   
    12     4    24 1   
    13     4    25 1   
    14     5     6 1   
    15     5    26 1   
    16     5    27 1   
    17     6     7 1   
    18     6    28 1   
    19     6    29 1   
    20     7     8 1   
    21     7    30 1   
    22     7    31 1   
    23     8     9 1   
    24     8    32 1   
    25     8    33 1   
    26     9    10 1   
    27     9    34 1   
    28     9    35 1   
    29    10    11 1   
    30    10    36 1   
    31    10    37 1   
    32    11    12 1   
    33    11    38 1   
    34    11    39 1   
    35    12    13 1   
    36    12    40 1   
    37    12    41 1   
    38    13    14 1   
    39    13    42 1   
    40    13    43 1   
    41    14    15 1   
    42    14    44 1   
    43    14    45 1   
    44    15    16 1   
    45    15    46 1   
    46    15    47 1   
    47    16    48 1   
    48    16    49 1   
    49    16    50 1   
@<TRIPOS>SUBSTRUCTURE
     1 R16         1 TEMP              0 ****  ****    0 ROOT
