@<TRIPOS>MOLECULE
R18
   45    48     1     0     0
SMALL
No Charge or Current Charge


@<TRIPOS>ATOM
      1 C1           1.6770     0.1390    -2.7770 c6         1 R18      -0.026200
      2 C2           1.5460    -0.6350    -4.1080 c6         1 R18      -0.180400
      3 C3           0.2800    -0.2900    -4.8830 c          1 R18       0.575300
      4 C4          -0.9220    -0.0990    -4.0490 ce         1 R18      -0.317200
      5 C5          -0.8810     0.0520    -2.6980 cf         1 R18       0.002800
      6 C6          -2.2020     0.1200    -1.9170 c6         1 R18      -0.051200
      7 C7          -2.0430    -0.4810    -0.5090 c6         1 R18      -0.068400
      8 C8          -0.9240     0.2710     0.2420 c6         1 R18      -0.016500
      9 C9           0.4040     0.2230    -0.5480 ce         1 R18      -0.033200
     10 C10          0.3770     0.1340    -1.9240 cf         1 R18      -0.101200
     11 C11          1.6390     0.3080     0.2920 ce         1 R18      -0.204000
     12 C12          1.7070     0.3940     1.6510 c2         1 R18      -0.168200
     13 C13          0.3950     0.5220     2.4310 c5         1 R18      -0.008800
     14 C14         -0.6860    -0.2880     1.6590 c5         1 R18      -0.065700
     15 C15         -1.8580    -0.3160     2.6790 c5         1 R18      -0.064400
     16 C16         -1.1360    -0.4050     4.0740 c5         1 R18      -0.107400
     17 C17          0.4080    -0.3060     3.7830 c5         1 R18       0.189000
     18 C18          0.0810     2.0450     2.6260 c3         1 R18      -0.069100
     19 C27          1.0870    -1.7090     3.7370 c3         1 R18      -0.118100
     20 O83          0.2590    -0.2050    -6.1030 o          1 R18      -0.532100
     21 O97          1.0730     0.3980     4.8300 oh         1 R18      -0.653000
     22 H12A         2.5140    -0.3130    -2.2340 hc         1 R18       0.053200
     23 H11A         1.9610     1.1810    -2.9830 hc         1 R18       0.053200
     24 H22          1.4340    -1.6900    -3.8240 hc         1 R18       0.070200
     25 H21          2.4310    -0.5490    -4.7520 hc         1 R18       0.070200
     26 H4          -1.8730    -0.0920    -4.5780 ha         1 R18       0.195000
     27 H62         -2.9910    -0.4230    -2.4560 hc         1 R18       0.057200
     28 H61         -2.5320     1.1660    -1.8490 hc         1 R18       0.057200
     29 H72         -1.8020    -1.5510    -0.5830 hc         1 R18       0.049200
     30 H71         -2.9940    -0.4030     0.0360 hc         1 R18       0.049200
     31 H8          -1.2390     1.3200     0.3190 hc         1 R18       0.063700
     32 H11          2.5910     0.2800    -0.2330 ha         1 R18       0.178000
     33 H12          2.6710     0.4430     2.1610 ha         1 R18       0.186000
     34 H14         -0.3570    -1.3140     1.4650 hc         1 R18       0.055700
     35 H152        -2.5230    -1.1700     2.5070 hc         1 R18       0.045700
     36 H151        -2.4790     0.5850     2.6090 hc         1 R18       0.045700
     37 H162        -1.3910    -1.3350     4.5970 hc         1 R18       0.049200
     38 H161        -1.4770     0.4090     4.7240 hc         1 R18       0.049200
     39 H183         0.0540     2.5790     1.6700 hc         1 R18       0.040033
     40 H182        -0.8730     2.2260     3.1330 hc         1 R18       0.040033
     41 H181         0.8610     2.5300     3.2250 hc         1 R18       0.040033
     42 H273         1.0670    -2.1850     4.7240 hc         1 R18       0.042367
     43 H272         0.5910    -2.4050     3.0530 hc         1 R18       0.042367
     44 H271         2.1390    -1.6400     3.4350 hc         1 R18       0.042367
     45 H97          0.9150    -0.1110     5.6530 ho         1 R18       0.443000
@<TRIPOS>BOND
     1     1     2 1   
     2     1    10 1   
     3     1    22 1   
     4     1    23 1   
     5     2     3 1   
     6     2    24 1   
     7     2    25 1   
     8     3     4 1   
     9     3    20 2   
    10     4     5 2   
    11     4    26 1   
    12     5     6 1   
    13     5    10 1   
    14     6     7 1   
    15     6    27 1   
    16     6    28 1   
    17     7     8 1   
    18     7    29 1   
    19     7    30 1   
    20     8     9 1   
    21     8    14 1   
    22     8    31 1   
    23     9    10 2   
    24     9    11 1   
    25    11    12 2   
    26    11    32 1   
    27    12    13 1   
    28    12    33 1   
    29    13    14 1   
    30    13    17 1   
    31    13    18 1   
    32    14    15 1   
    33    14    34 1   
    34    15    16 1   
    35    15    35 1   
    36    15    36 1   
    37    16    17 1   
    38    16    37 1   
    39    16    38 1   
    40    17    19 1   
    41    17    21 1   
    42    18    39 1   
    43    18    40 1   
    44    18    41 1   
    45    19    42 1   
    46    19    43 1   
    47    19    44 1   
    48    21    45 1   
@<TRIPOS>SUBSTRUCTURE
     1 R18         1 TEMP              0 ****  ****    0 ROOT
