@<TRIPOS>MOLECULE
R18
   45    48     1     0     0
SMALL
abcg2


@<TRIPOS>ATOM
      1 C1           1.6380     0.1630    -2.7130 c6         1 R18      -0.026200
      2 C2           1.5580    -0.8380    -3.8590 c6         1 R18      -0.180400
      3 C3           0.3190    -0.6450    -4.6890 c          1 R18       0.575300
      4 C4          -0.8690    -0.2340    -3.9580 ce         1 R18      -0.317200
      5 C5          -0.8600     0.0800    -2.6400 cf         1 R18       0.002800
      6 C6          -2.1450     0.3480    -1.9210 c6         1 R18      -0.051200
      7 C7          -2.0890    -0.2400    -0.5210 c6         1 R18      -0.068400
      8 C8          -0.9430     0.3970     0.2470 c6         1 R18      -0.016500
      9 C9           0.3600     0.3450    -0.5330 ce         1 R18      -0.033200
     10 C10          0.3810     0.1800    -1.8830 cf         1 R18      -0.101200
     11 C11          1.5890     0.4820     0.2440 ce         1 R18      -0.204000
     12 C12          1.6280     0.5270     1.5840 c2         1 R18      -0.168200
     13 C13          0.3840     0.4820     2.4050 c5         1 R18      -0.008800
     14 C14         -0.7080    -0.2340     1.6070 c5         1 R18      -0.065700
     15 C15         -1.8490    -0.3590     2.6110 c5         1 R18      -0.064400
     16 C16         -1.1180    -0.5920     3.9550 c5         1 R18      -0.107400
     17 C17          0.4020    -0.3640     3.7000 c5         1 R18       0.189000
     18 C18          0.0120     1.9370     2.7510 c3         1 R18      -0.069100
     19 C27          1.1330    -1.6960     3.5280 c3         1 R18      -0.118100
     20 O83          0.2920    -0.8850    -5.8860 o          1 R18      -0.532100
     21 O97          1.0370     0.3730     4.7240 oh         1 R18      -0.653000
     22 H12A         2.5200    -0.0620    -2.1180 hc         1 R18       0.053200
     23 H11A         1.7940     1.1640    -3.1290 hc         1 R18       0.053200
     24 H22          1.5230    -1.8570    -3.4560 hc         1 R18       0.070200
     25 H21          2.4440    -0.7770    -4.4920 hc         1 R18       0.070200
     26 H4          -1.8100    -0.2500    -4.4980 ha         1 R18       0.195000
     27 H62         -2.9860    -0.0500    -2.4900 hc         1 R18       0.057200
     28 H61         -2.2960     1.4310    -1.8480 hc         1 R18       0.057200
     29 H72         -1.9520    -1.3250    -0.5760 hc         1 R18       0.049200
     30 H71         -3.0320    -0.0590    -0.0020 hc         1 R18       0.049200
     31 H8          -1.2020     1.4560     0.3820 hc         1 R18       0.063700
     32 H11          2.5260     0.5660    -0.2910 ha         1 R18       0.178000
     33 H12          2.5830     0.6680     2.0810 ha         1 R18       0.186000
     34 H14         -0.3440    -1.2490     1.4050 hc         1 R18       0.055700
     35 H152        -2.5340    -1.1720     2.3670 hc         1 R18       0.045700
     36 H151        -2.4440     0.5580     2.6390 hc         1 R18       0.045700
     37 H162        -1.2980    -1.6000     4.3350 hc         1 R18       0.049200
     38 H161        -1.4750     0.0990     4.7210 hc         1 R18       0.049200
     39 H183        -0.2500     2.5020     1.8570 hc         1 R18       0.040033
     40 H182        -0.8290     2.0030     3.4420 hc         1 R18       0.040033
     41 H181         0.8540     2.4500     3.2150 hc         1 R18       0.040033
     42 H273         1.0930    -2.2650     4.4600 hc         1 R18       0.042367
     43 H272         0.6870    -2.3260     2.7600 hc         1 R18       0.042367
     44 H271         2.1830    -1.5450     3.2720 hc         1 R18       0.042367
     45 H97          1.0720    -0.1750     5.5150 ho         1 R18       0.443000
@<TRIPOS>BOND
     1     1     2 1   
     2     1    10 1   
     3     1    22 1   
     4     1    23 1   
     5     2     3 1   
     6     2    24 1   
     7     2    25 1   
     8     3     4 1   
     9     3    20 2   
    10     4     5 2   
    11     4    26 1   
    12     5     6 1   
    13     5    10 1   
    14     6     7 1   
    15     6    27 1   
    16     6    28 1   
    17     7     8 1   
    18     7    29 1   
    19     7    30 1   
    20     8     9 1   
    21     8    14 1   
    22     8    31 1   
    23     9    10 2   
    24     9    11 1   
    25    11    12 2   
    26    11    32 1   
    27    12    13 1   
    28    12    33 1   
    29    13    14 1   
    30    13    17 1   
    31    13    18 1   
    32    14    15 1   
    33    14    34 1   
    34    15    16 1   
    35    15    35 1   
    36    15    36 1   
    37    16    17 1   
    38    16    37 1   
    39    16    38 1   
    40    17    19 1   
    41    17    21 1   
    42    18    39 1   
    43    18    40 1   
    44    18    41 1   
    45    19    42 1   
    46    19    43 1   
    47    19    44 1   
    48    21    45 1   
@<TRIPOS>SUBSTRUCTURE
     1 R18         1 TEMP              0 ****  ****    0 ROOT
