@<TRIPOS>MOLECULE
R1E
   17    17     1     0     0
SMALL
No Charge or Current Charge


@<TRIPOS>ATOM
      1 C           21.7770    33.0200    -9.3700 c5         1 R1E       0.130300
      2 O1          22.3330    32.6570   -10.6390 oh         1 R1E      -0.646000
      3 C1          20.4960    33.8800    -9.5490 c5         1 R1E      -0.123400
      4 C2          19.3680    32.8350    -9.8300 c5         1 R1E       0.187000
      5 C3          19.9550    31.4470    -9.4180 c5         1 R1E      -0.123400
      6 C4          21.2080    31.7970    -8.5710 c5         1 R1E       0.130300
      7 F2          18.2240    33.1350    -9.0930 f          1 R1E      -0.115000
      8 F1          19.0080    32.8380   -11.1770 f          1 R1E      -0.115000
      9 O2          20.8430    32.1220    -7.2240 oh         1 R1E      -0.646000
     10 H1          22.5300    33.5640    -8.7820 h1         1 R1E       0.045200
     11 H2          23.1850    32.1980   -10.4620 ho         1 R1E       0.444000
     12 H3          20.5970    34.6150   -10.3540 hc         1 R1E       0.085700
     13 H4          20.2820    34.4470    -8.6350 hc         1 R1E       0.085700
     14 H5          19.2350    30.8350    -8.8630 hc         1 R1E       0.085700
     15 H6          20.2390    30.8660   -10.3030 hc         1 R1E       0.085700
     16 H7          21.9200    30.9600    -8.5650 h1         1 R1E       0.045200
     17 H8          21.6780    32.2420    -6.7190 ho         1 R1E       0.444000
@<TRIPOS>BOND
     1     1     2 1   
     2     1     3 1   
     3     1     6 1   
     4     1    10 1   
     5     2    11 1   
     6     3     4 1   
     7     3    12 1   
     8     3    13 1   
     9     4     5 1   
    10     4     7 1   
    11     4     8 1   
    12     5     6 1   
    13     5    14 1   
    14     5    15 1   
    15     6     9 1   
    16     6    16 1   
    17     9    17 1   
@<TRIPOS>SUBSTRUCTURE
     1 R1E         1 TEMP              0 ****  ****    0 ROOT
