@<TRIPOS>MOLECULE
R1E
   17    17     1     0     0
SMALL
bcc


@<TRIPOS>ATOM
      1 C           21.7740    33.0300    -9.3170 c5         1 R1E       0.107100
      2 O1          22.3560    32.7030   -10.5590 oh         1 R1E      -0.583800
      3 C1          20.5190    33.8530    -9.5840 c5         1 R1E      -0.123400
      4 C2          19.3990    32.8280    -9.7740 c5         1 R1E       0.429600
      5 C3          19.9780    31.4610    -9.4310 c5         1 R1E      -0.123400
      6 C4          21.2220    31.7740    -8.6160 c5         1 R1E       0.107100
      7 F2          18.3230    33.1290    -8.9820 f          1 R1E      -0.236300
      8 F1          18.8990    32.8480   -11.0480 f          1 R1E      -0.236300
      9 O2          20.8160    32.0700    -7.3000 oh         1 R1E      -0.583800
     10 H1          22.4840    33.5690    -8.6760 h1         1 R1E       0.045200
     11 H2          23.1120    32.1270   -10.4010 ho         1 R1E       0.405000
     12 H3          20.6280    34.5090   -10.4480 hc         1 R1E       0.085700
     13 H4          20.2960    34.4820    -8.7230 hc         1 R1E       0.085700
     14 H5          19.2670    30.8180    -8.9110 hc         1 R1E       0.085700
     15 H6          20.2720    30.9550   -10.3510 hc         1 R1E       0.085700
     16 H7          21.9450    30.9470    -8.6360 h1         1 R1E       0.045200
     17 H8          21.5860    32.3550    -6.7970 ho         1 R1E       0.405000
@<TRIPOS>BOND
     1     1     2 1   
     2     1     3 1   
     3     1     6 1   
     4     1    10 1   
     5     2    11 1   
     6     3     4 1   
     7     3    12 1   
     8     3    13 1   
     9     4     5 1   
    10     4     7 1   
    11     4     8 1   
    12     5     6 1   
    13     5    14 1   
    14     5    15 1   
    15     6     9 1   
    16     6    16 1   
    17     9    17 1   
@<TRIPOS>SUBSTRUCTURE
     1 R1E         1 TEMP              0 ****  ****    0 ROOT
