@<TRIPOS>MOLECULE
R1I
   50    53     1     0     0
SMALL
abcg2


@<TRIPOS>ATOM
      1 N1         -20.1860     5.1680    26.9710 ns         1 R1I      -0.186000
      2 C4         -21.9720     5.1240    28.6120 c6         1 R1I      -0.089400
      3 C5         -20.4710     5.1080    28.2980 c          1 R1I       0.608100
      4 C6         -18.8570     5.2270    26.4660 ca         1 R1I      -0.083000
      5 C7         -18.1470     4.0690    26.2800 ca         1 R1I       0.339900
      6 C8         -16.3040     5.1750    25.4960 ca         1 R1I       0.364900
      7 C10        -16.2730     7.6460    25.3150 ca         1 R1I      -0.078000
      8 C13        -18.8920     7.7230    26.3260 ca         1 R1I      -0.101000
      9 C15        -22.2560     4.4670    29.9390 ca         1 R1I      -0.049300
     10 C17        -22.4360     2.4750    31.2700 ca         1 R1I       0.126000
     11 C20        -22.5770     5.2400    31.0540 ca         1 R1I      -0.056300
     12 C21        -22.7060     6.7380    30.9600 c6         1 R1I       0.214100
     13 CL         -22.3480     0.7270    31.4000 cl         1 R1I      -0.212000
     14 C16        -22.1860     3.0780    30.0510 ca         1 R1I      -0.088000
     15 C18        -22.7550     3.2260    32.3950 ca         1 R1I      -0.093000
     16 C19        -22.8240     4.6050    32.2730 ca         1 R1I      -0.101000
     17 N          -22.0750     7.2890    29.7660 n3         1 R1I      -0.709600
     18 C2         -22.3140     8.7260    29.6740 c3         1 R1I       0.162800
     19 C1         -21.3350     9.4180    28.7410 c3         1 R1I       0.154600
     20 O          -21.5910    10.8130    28.7940 os         1 R1I      -0.466000
     21 C          -20.7280    11.5490    27.9430 c3         1 R1I       0.147900
     22 C3         -22.5170     6.5590    28.5850 c6         1 R1I       0.171800
     23 O1         -19.6020     5.0580    29.1580 o          1 R1I      -0.548100
     24 C14        -18.2560     6.4730    26.1550 ca         1 R1I      -0.008000
     25 C12        -18.2310     8.8800    26.0000 ca         1 R1I      -0.092000
     26 C11        -16.9150     8.8460    25.4890 ca         1 R1I      -0.111000
     27 C9         -16.9270     6.4370    25.6460 ca         1 R1I      -0.095000
     28 N2         -16.8780     4.0320    25.8000 nb         1 R1I      -0.655000
     29 H1         -20.9480     5.2480    26.3140 hn         1 R1I       0.153000
     30 H2         -22.4770     4.5620    27.8220 hc         1 R1I       0.063700
     31 H3         -18.6030     3.1170    26.5250 h4         1 R1I       0.028100
     32 H4         -15.2900     5.1350    25.1090 h4         1 R1I       0.022100
     33 H5         -15.2620     7.6070    24.9280 ha         1 R1I       0.119000
     34 H6         -19.8990     7.7550    26.7150 ha         1 R1I       0.117000
     35 H7         -22.2530     7.2000    31.8390 h1         1 R1I       0.047200
     36 H8         -23.7810     6.9940    30.9860 h1         1 R1I       0.047200
     37 H9         -21.9370     2.4770    29.1870 ha         1 R1I       0.128000
     38 H10        -22.9450     2.7420    33.3430 ha         1 R1I       0.131000
     39 H11        -23.0710     5.2020    33.1430 ha         1 R1I       0.118000
     40 H13        -22.1860     9.1520    30.6710 h1         1 R1I       0.047200
     41 H14        -23.3460     8.9460    29.3560 h1         1 R1I       0.047200
     42 H15        -21.4470     9.0690    27.7080 h1         1 R1I       0.031200
     43 H16        -20.3060     9.2060    29.0580 h1         1 R1I       0.031200
     44 H17        -20.9940    12.6010    28.0360 h1         1 R1I       0.030700
     45 H18        -19.6790    11.4130    28.2320 h1         1 R1I       0.030700
     46 H19        -20.8450    11.2360    26.8980 h1         1 R1I       0.030700
     47 H20        -22.1700     7.0640    27.6870 h1         1 R1I       0.039200
     48 H21        -23.6170     6.5160    28.5310 h1         1 R1I       0.039200
     49 H22        -18.7240     9.8350    26.1370 ha         1 R1I       0.111000
     50 H23        -16.4150     9.7730    25.2390 ha         1 R1I       0.118000
@<TRIPOS>BOND
     1     1     3 1   
     2     1     4 1   
     3     1    29 1   
     4     2     3 1   
     5     2     9 1   
     6     2    22 1   
     7     2    30 1   
     8     3    23 2   
     9     4     5 ar  
    10     4    24 ar  
    11     5    28 ar  
    12     5    31 1   
    13     6    27 ar  
    14     6    28 ar  
    15     6    32 1   
    16     7    26 ar  
    17     7    27 ar  
    18     7    33 1   
    19     8    24 ar  
    20     8    25 ar  
    21     8    34 1   
    22     9    11 ar  
    23     9    14 ar  
    24    10    13 1   
    25    10    14 ar  
    26    10    15 ar  
    27    11    12 1   
    28    11    16 ar  
    29    12    17 1   
    30    12    35 1   
    31    12    36 1   
    32    14    37 1   
    33    15    16 ar  
    34    15    38 1   
    35    16    39 1   
    36    17    18 1   
    37    17    22 1   
    38    18    19 1   
    39    18    40 1   
    40    18    41 1   
    41    19    20 1   
    42    19    42 1   
    43    19    43 1   
    44    20    21 1   
    45    21    44 1   
    46    21    45 1   
    47    21    46 1   
    48    22    47 1   
    49    22    48 1   
    50    24    27 ar  
    51    25    26 ar  
    52    25    49 1   
    53    26    50 1   
@<TRIPOS>SUBSTRUCTURE
     1 R1I         1 TEMP              0 ****  ****    0 ROOT
