@<TRIPOS>MOLECULE
R1I
   50    53     1     0     0
SMALL
No Charge or Current Charge


@<TRIPOS>ATOM
      1 N1         -20.1250     5.6680    27.6410 ns         1 R1I      -0.186000
      2 C4         -22.3860     4.9760    28.4830 c6         1 R1I      -0.089400
      3 C5         -21.0230     4.6290    27.8350 c          1 R1I       0.608100
      4 C6         -18.7800     5.6390    27.1760 ca         1 R1I      -0.083000
      5 C7         -17.9300     4.5510    27.4880 ca         1 R1I       0.339900
      6 C8         -16.1240     5.5280    26.4180 ca         1 R1I       0.364900
      7 C10        -16.3080     7.7040    25.3140 ca         1 R1I      -0.078000
      8 C13        -19.0250     7.8220    26.0350 ca         1 R1I      -0.101000
      9 C15        -22.4410     4.3140    29.8700 ca         1 R1I      -0.049300
     10 C17        -22.6060     2.3010    31.2430 ca         1 R1I       0.126000
     11 C20        -22.3390     5.0960    31.0420 ca         1 R1I      -0.056300
     12 C21        -22.2460     6.6220    30.9620 c6         1 R1I       0.214100
     13 Cl         -22.7740     0.5540    31.3660 cl         1 R1I      -0.212000
     14 C16        -22.5800     2.9150    29.9810 ca         1 R1I      -0.088000
     15 C18        -22.4990     3.0770    32.4060 ca         1 R1I      -0.093000
     16 C19        -22.3700     4.4730    32.3050 ca         1 R1I      -0.101000
     17 N          -21.8830     7.1590    29.6230 n3         1 R1I      -0.709600
     18 C2         -21.9610     8.6480    29.6090 c3         1 R1I       0.162800
     19 C1         -21.3210     9.3350    28.3790 c3         1 R1I       0.154600
     20 O          -21.4110    10.7620    28.5500 os         1 R1I      -0.466000
     21 C          -20.8210    11.5230    27.4820 c3         1 R1I       0.147900
     22 C3         -22.6890     6.4980    28.5620 c6         1 R1I       0.171800
     23 O1         -20.7780     3.4870    27.4580 o          1 R1I      -0.548100
     24 C14        -18.2450     6.7130    26.4300 ca         1 R1I      -0.008000
     25 C12        -18.4440     8.8700    25.2990 ca         1 R1I      -0.092000
     26 C11        -17.0870     8.8130    24.9430 ca         1 R1I      -0.111000
     27 C9         -16.8870     6.6530    26.0520 ca         1 R1I      -0.095000
     28 N2         -16.6290     4.4890    27.1220 nb         1 R1I      -0.655000
     29 H1         -20.4510     6.5750    27.9540 hn         1 R1I       0.153000
     30 H2         -23.1500     4.4890    27.8620 hc         1 R1I       0.063700
     31 H3         -18.2900     3.7110    28.0790 h4         1 R1I       0.028100
     32 H4         -15.0730     5.4520    26.1380 h4         1 R1I       0.022100
     33 H5         -15.2590     7.6620    25.0260 ha         1 R1I       0.119000
     34 H6         -20.0820     7.8740    26.2760 ha         1 R1I       0.117000
     35 H7         -21.5140     6.9650    31.7080 h1         1 R1I       0.047200
     36 H8         -23.2220     7.0270    31.2720 h1         1 R1I       0.047200
     37 H9         -22.6640     2.3000    29.0890 ha         1 R1I       0.128000
     38 H10        -22.5210     2.5990    33.3820 ha         1 R1I       0.131000
     39 H11        -22.2990     5.0720    33.2110 ha         1 R1I       0.118000
     40 H13        -21.4490     9.0430    30.4970 h1         1 R1I       0.047200
     41 H14        -23.0100     8.9660    29.6770 h1         1 R1I       0.047200
     42 H15        -21.8430     9.0270    27.4640 h1         1 R1I       0.031200
     43 H16        -20.2710     9.0240    28.3070 h1         1 R1I       0.031200
     44 H17        -20.9240    12.5980    27.6780 h1         1 R1I       0.030700
     45 H18        -19.7520    11.2940    27.3830 h1         1 R1I       0.030700
     46 H19        -21.3140    11.3010    26.5260 h1         1 R1I       0.030700
     47 H20        -22.5040     6.9470    27.5760 h1         1 R1I       0.039200
     48 H21        -23.7600     6.6360    28.7720 h1         1 R1I       0.039200
     49 H22        -19.0490     9.7220    24.9980 ha         1 R1I       0.111000
     50 H23        -16.6400     9.6250    24.3720 ha         1 R1I       0.118000
@<TRIPOS>BOND
     1     1     3 1   
     2     1     4 1   
     3     1    29 1   
     4     2     3 1   
     5     2     9 1   
     6     2    22 1   
     7     2    30 1   
     8     3    23 2   
     9     4     5 ar  
    10     4    24 ar  
    11     5    28 ar  
    12     5    31 1   
    13     6    27 ar  
    14     6    28 ar  
    15     6    32 1   
    16     7    26 ar  
    17     7    27 ar  
    18     7    33 1   
    19     8    24 ar  
    20     8    25 ar  
    21     8    34 1   
    22     9    11 ar  
    23     9    14 ar  
    24    10    13 1   
    25    10    14 ar  
    26    10    15 ar  
    27    11    12 1   
    28    11    16 ar  
    29    12    17 1   
    30    12    35 1   
    31    12    36 1   
    32    14    37 1   
    33    15    16 ar  
    34    15    38 1   
    35    16    39 1   
    36    17    18 1   
    37    17    22 1   
    38    18    19 1   
    39    18    40 1   
    40    18    41 1   
    41    19    20 1   
    42    19    42 1   
    43    19    43 1   
    44    20    21 1   
    45    21    44 1   
    46    21    45 1   
    47    21    46 1   
    48    22    47 1   
    49    22    48 1   
    50    24    27 ar  
    51    25    26 ar  
    52    25    49 1   
    53    26    50 1   
@<TRIPOS>SUBSTRUCTURE
     1 R1I         1 TEMP              0 ****  ****    0 ROOT
