@<TRIPOS>MOLECULE
R1L
   89    95     1     0     0
SMALL
abcg2


@<TRIPOS>ATOM
      1 C2          19.7930     4.7540     5.1730 ca         1 R1L       0.211000
      2 C3          19.2920     5.0970     6.4100 ca         1 R1L      -0.193000
      3 C4          19.0000     6.4330     6.6600 ca         1 R1L       0.171100
      4 C6          17.8410     7.8820     8.1200 ca         1 R1L       0.097100
      5 C7          18.3360     8.7890     9.0420 ca         1 R1L      -0.123500
      6 C8          17.6090     9.9400     9.3190 ca         1 R1L      -0.095500
      7 C11         16.6350     8.1070     7.4690 ca         1 R1L      -0.123500
      8 C12         19.2130     7.3950     5.6780 ca         1 R1L      -0.198000
      9 C15         20.5710     5.2850     2.8610 cc         1 R1L       0.448500
     10 C18         21.0690     4.3940     0.8790 ca         1 R1L       0.165500
     11 C24         20.1410     4.3120     1.9190 ca         1 R1L      -0.374900
     12 C27         24.3670     5.7780     1.2560 c6         1 R1L      -0.087400
     13 C31         22.7750     7.2850    -0.0150 c6         1 R1L       0.077000
     14 C32         23.7450     8.3470    -1.9650 c          1 R1L       0.617300
     15 C34         24.9730     8.7310    -2.7460 ce         1 R1L      -0.056900
     16 C35         24.8730    10.0290    -3.3350 cg         1 R1L       0.316700
     17 C37         25.9480     7.8570    -3.0140 c2         1 R1L      -0.128200
     18 C38         27.1320     8.0480    -3.9280 c3         1 R1L       0.238400
     19 C39         28.2190     7.0320    -3.5390 c3         1 R1L      -0.104600
     20 C40         26.6160     7.6920    -5.3320 c3         1 R1L      -0.104600
     21 F1          20.1020     3.4700     4.9490 f          1 R1L      -0.165000
     22 O5          18.5460     6.7220     7.9040 os         1 R1L      -0.249200
     23 C9          16.4070    10.1840     8.6700 ca         1 R1L      -0.113000
     24 C10         15.9240     9.2650     7.7470 ca         1 R1L      -0.095500
     25 C13         19.7060     7.0050     4.4450 ca         1 R1L      -0.026000
     26 C14         20.0000     5.6740     4.1540 ca         1 R1L      -0.180900
     27 N16         21.6420     5.8950     2.4110 nd         1 R1L      -0.524100
     28 N17         21.9450     5.3600     1.2190 na         1 R1L      -0.023100
     29 N19         21.0760     3.6550    -0.2330 nb         1 R1L      -0.234000
     30 C20         20.0730     2.8010    -0.2650 ca         1 R1L       0.200900
     31 N21         19.0930     2.6380     0.6210 nb         1 R1L      -0.310000
     32 C22         19.0800     3.3980     1.7190 ca         1 R1L       0.461900
     33 N23         18.0610     3.2540     2.5670 nv         1 R1L      -1.056900
     34 C25         23.0710     5.8560     0.4540 c6         1 R1L       0.095300
     35 C28         25.5130     6.4250     0.4880 c6         1 R1L      -0.092400
     36 C29         25.1390     7.8320     0.0510 c6         1 R1L       0.101000
     37 N30         23.9170     7.8070    -0.7420 n          1 R1L      -0.410800
     38 O33         22.6550     8.5250    -2.4850 o          1 R1L      -0.572100
     39 N36         24.6560    11.0800    -3.7570 n1         1 R1L      -0.454000
     40 N41         27.5670     9.4400    -3.8560 n3         1 R1L      -0.739600
     41 C42         28.1640     9.8100    -2.5840 c6         1 R1L       0.178300
     42 C43         28.3360    11.3140    -2.4930 c6         1 R1L       0.160300
     43 N44         29.1770    11.7870    -3.5750 n3         1 R1L      -0.707600
     44 C45         28.5870    11.4180    -4.8480 c6         1 R1L       0.160300
     45 C46         28.4010     9.9140    -4.9450 c6         1 R1L       0.178300
     46 C47         29.4040    13.2060    -3.4840 cy         1 R1L       0.106500
     47 C48         30.3120    13.6600    -2.3350 cy         1 R1L       0.143600
     48 O49         31.2710    14.2110    -3.2450 oq         1 R1L      -0.448000
     49 C50         30.5170    13.7630    -4.3780 cy         1 R1L       0.143600
     50 H1          19.1420     4.3430     7.1730 ha         1 R1L       0.151000
     51 H2          19.2770     8.5940     9.5410 ha         1 R1L       0.128500
     52 H3          17.9910    10.6490    10.0410 ha         1 R1L       0.119000
     53 H4          16.2520     7.3870     6.7570 ha         1 R1L       0.128500
     54 H5          19.0030     8.4400     5.8600 ha         1 R1L       0.136000
     55 H6          24.2340     6.3010     2.2060 hc         1 R1L       0.063700
     56 H7          24.5940     4.7360     1.4870 hc         1 R1L       0.063700
     57 H8          22.5710     7.9260     0.8500 h1         1 R1L       0.075700
     58 H9          21.8940     7.2930    -0.6520 h1         1 R1L       0.075700
     59 H10         25.8590     6.8710    -2.5660 ha         1 R1L       0.184000
     60 H11         28.5240     7.1270    -2.4970 hc         1 R1L       0.045867
     61 H12         27.8570     6.0140    -3.6850 hc         1 R1L       0.045867
     62 H13         29.1030     7.1620    -4.1650 hc         1 R1L       0.045867
     63 H14         26.0820     6.7420    -5.2990 hc         1 R1L       0.045867
     64 H15         25.9290     8.4530    -5.7040 hc         1 R1L       0.045867
     65 H16         27.4340     7.5750    -6.0430 hc         1 R1L       0.045867
     66 H17         15.8470    11.0840     8.8850 ha         1 R1L       0.119000
     67 H18         14.9840     9.4460     7.2420 ha         1 R1L       0.119000
     68 H19         19.8670     7.7540     3.6810 ha         1 R1L       0.130000
     69 H20         20.0270     2.1500    -1.1320 h5         1 R1L       0.047100
     70 H21         17.3000     2.6460     2.3120 hn         1 R1L       0.500500
     71 H22         17.8930     3.9110     3.3080 hn         1 R1L       0.500500
     72 H23         23.1420     5.2110    -0.4240 h1         1 R1L       0.093700
     73 H24         25.7770     5.8250    -0.3880 hc         1 R1L       0.051700
     74 H25         26.4010     6.4720     1.1200 hc         1 R1L       0.051700
     75 H26         25.9440     8.3020    -0.5020 h1         1 R1L       0.054200
     76 H27         24.9550     8.4550     0.9330 h1         1 R1L       0.054200
     77 H29         27.5270     9.4850    -1.7600 h1         1 R1L       0.038200
     78 H30         29.1490     9.3420    -2.4330 h1         1 R1L       0.038200
     79 H31         28.8050    11.5520    -1.5350 h1         1 R1L       0.043950
     80 H32         27.3490    11.8050    -2.5020 h1         1 R1L       0.043950
     81 H34         29.2410    11.7380    -5.6620 h1         1 R1L       0.043950
     82 H35         27.6110    11.9110    -5.0020 h1         1 R1L       0.043950
     83 H36         27.9250     9.7030    -5.9020 h1         1 R1L       0.038200
     84 H37         29.3900     9.4290    -4.9570 h1         1 R1L       0.038200
     85 H38         28.4670    13.7820    -3.5470 h1         1 R1L       0.048700
     86 H39         30.7260    12.8410    -1.7380 h1         1 R1L       0.055450
     87 H40         29.8920    14.4130    -1.6640 h1         1 R1L       0.055450
     88 H41         30.2300    14.5850    -5.0390 h1         1 R1L       0.055450
     89 H42         31.0510    13.0070    -4.9620 h1         1 R1L       0.055450
@<TRIPOS>BOND
     1     1     2 ar  
     2     1    21 1   
     3     1    26 ar  
     4     2     3 ar  
     5     2    50 1   
     6     3     8 ar  
     7     3    22 1   
     8     4     5 ar  
     9     4     7 ar  
    10     4    22 1   
    11     5     6 ar  
    12     5    51 1   
    13     6    23 ar  
    14     6    52 1   
    15     7    24 ar  
    16     7    53 1   
    17     8    25 ar  
    18     8    54 1   
    19     9    11 1   
    20     9    26 1   
    21     9    27 2   
    22    10    11 ar  
    23    10    28 1   
    24    10    29 ar  
    25    11    32 ar  
    26    12    34 1   
    27    12    35 1   
    28    12    55 1   
    29    12    56 1   
    30    13    34 1   
    31    13    37 1   
    32    13    57 1   
    33    13    58 1   
    34    14    15 1   
    35    14    37 1   
    36    14    38 2   
    37    15    16 1   
    38    15    17 2   
    39    16    39 3   
    40    17    18 1   
    41    17    59 1   
    42    18    19 1   
    43    18    20 1   
    44    18    40 1   
    45    19    60 1   
    46    19    61 1   
    47    19    62 1   
    48    20    63 1   
    49    20    64 1   
    50    20    65 1   
    51    23    24 ar  
    52    23    66 1   
    53    24    67 1   
    54    25    26 ar  
    55    25    68 1   
    56    27    28 1   
    57    28    34 1   
    58    29    30 ar  
    59    30    31 ar  
    60    30    69 1   
    61    31    32 ar  
    62    32    33 1   
    63    33    70 1   
    64    33    71 1   
    65    34    72 1   
    66    35    36 1   
    67    35    73 1   
    68    35    74 1   
    69    36    37 1   
    70    36    75 1   
    71    36    76 1   
    72    40    41 1   
    73    40    45 1   
    74    41    42 1   
    75    41    77 1   
    76    41    78 1   
    77    42    43 1   
    78    42    79 1   
    79    42    80 1   
    80    43    44 1   
    81    43    46 1   
    82    44    45 1   
    83    44    81 1   
    84    44    82 1   
    85    45    83 1   
    86    45    84 1   
    87    46    47 1   
    88    46    49 1   
    89    46    85 1   
    90    47    48 1   
    91    47    86 1   
    92    47    87 1   
    93    48    49 1   
    94    49    88 1   
    95    49    89 1   
@<TRIPOS>SUBSTRUCTURE
     1 R1L         1 TEMP              0 ****  ****    0 ROOT
