@<TRIPOS>MOLECULE
R1L
   89    95     1     0     0
SMALL
No Charge or Current Charge


@<TRIPOS>ATOM
      1 C2          20.2690     5.0890     5.6620 ca         1 R1L       0.211000
      2 C3          19.6600     5.4500     6.8720 ca         1 R1L      -0.193000
      3 C4          18.9680     6.6640     6.9730 ca         1 R1L       0.171100
      4 C6          17.1930     7.6740     8.2700 ca         1 R1L       0.097100
      5 C7          17.0290     8.6350     9.2820 ca         1 R1L      -0.123500
      6 C8          15.8100     9.3230     9.4100 ca         1 R1L      -0.095500
      7 C11         16.1260     7.3850     7.3960 ca         1 R1L      -0.123500
      8 C12         18.9130     7.5330     5.8680 ca         1 R1L      -0.198000
      9 C15         20.8400     5.5710     3.2890 cc         1 R1L       0.448500
     10 C18         21.3780     4.4430     1.4220 ca         1 R1L       0.165500
     11 C24         20.5110     4.4290     2.4760 ca         1 R1L      -0.374900
     12 C27         24.6200     5.8980     1.3430 c6         1 R1L      -0.087400
     13 C31         22.9660     7.4090     0.1170 c6         1 R1L       0.077000
     14 C32         23.7670     8.9860    -1.6630 c          1 R1L       0.617300
     15 C34         24.7050     9.2710    -2.8100 ce         1 R1L      -0.056900
     16 C35         24.5690    10.5750    -3.3910 cg         1 R1L       0.316700
     17 C37         25.5840     8.3470    -3.3030 c2         1 R1L      -0.128200
     18 C38         26.5870     8.4730    -4.4560 c3         1 R1L       0.238400
     19 C39         27.4740     7.1940    -4.4890 c3         1 R1L      -0.104600
     20 C40         25.7750     8.5190    -5.7790 c3         1 R1L      -0.104600
     21 F1          20.9580     3.9280     5.5940 f          1 R1L      -0.165000
     22 O5          18.3930     7.0040     8.1760 os         1 R1L      -0.249200
     23 C9          14.7500     9.0440     8.5290 ca         1 R1L      -0.113000
     24 C10         14.9070     8.0740     7.5230 ca         1 R1L      -0.095500
     25 C13         19.5250     7.1720     4.6550 ca         1 R1L      -0.026000
     26 C14         20.1870     5.9340     4.5390 ca         1 R1L      -0.180900
     27 N16         21.8260     6.3000     2.7560 nd         1 R1L      -0.524100
     28 N17         22.1560     5.5720     1.6140 na         1 R1L      -0.023100
     29 N19         21.3310     3.5090     0.4530 nb         1 R1L      -0.234000
     30 C20         20.3630     2.5720     0.5980 ca         1 R1L       0.200900
     31 N21         19.4430     2.5070     1.5920 nb         1 R1L      -0.310000
     32 C22         19.5210     3.4560     2.5360 ca         1 R1L       0.461900
     33 N23         18.5620     3.4160     3.4850 nv         1 R1L      -1.056900
     34 C25         23.2290     5.9860     0.6750 c6         1 R1L       0.095300
     35 C28         25.7060     6.3490     0.3440 c6         1 R1L      -0.092400
     36 C29         25.4150     7.7700    -0.1890 c6         1 R1L       0.101000
     37 N30         24.0500     7.9080    -0.7870 n          1 R1L      -0.410800
     38 O33         22.7470     9.6460    -1.4920 o          1 R1L      -0.572100
     39 N36         24.4110    11.6400    -3.8450 n1         1 R1L      -0.454000
     40 N41         27.4080     9.7120    -4.2660 n3         1 R1L      -0.739600
     41 C42         28.1480     9.8000    -2.9600 c6         1 R1L       0.178300
     42 C43         28.8350    11.1860    -2.7570 c6         1 R1L       0.160300
     43 N44         29.7660    11.5270    -3.8750 n3         1 R1L      -0.707600
     44 C45         29.0350    11.4490    -5.1760 c6         1 R1L       0.160300
     45 C46         28.3410    10.0660    -5.3910 c6         1 R1L       0.178300
     46 C47         30.4310    12.8480    -3.6770 cy         1 R1L       0.106500
     47 C48         31.4890    12.9840    -2.5310 cy         1 R1L       0.143600
     48 O49         32.2300    13.9050    -3.4130 oq         1 R1L      -0.448000
     49 C50         31.6580    13.2060    -4.5800 cy         1 R1L       0.143600
     50 H1          19.7290     4.7910     7.7320 ha         1 R1L       0.151000
     51 H2          17.8490     8.8480     9.9640 ha         1 R1L       0.128500
     52 H3          15.6850    10.0710    10.1910 ha         1 R1L       0.119000
     53 H4          16.2380     6.6280     6.6230 ha         1 R1L       0.128500
     54 H5          18.4060     8.4910     5.9480 ha         1 R1L       0.136000
     55 H6          24.6520     6.5330     2.2400 hc         1 R1L       0.063700
     56 H7          24.8160     4.8690     1.6740 hc         1 R1L       0.063700
     57 H8          22.8560     8.1150     0.9530 h1         1 R1L       0.075700
     58 H9          22.0100     7.3990    -0.4260 h1         1 R1L       0.075700
     59 H10         25.5840     7.3470    -2.8710 ha         1 R1L       0.184000
     60 H11         28.0110     7.0510    -3.5450 hc         1 R1L       0.045867
     61 H12         26.8590     6.3010    -4.6550 hc         1 R1L       0.045867
     62 H13         28.2110     7.2360    -5.2990 hc         1 R1L       0.045867
     63 H14         25.0280     7.7160    -5.8010 hc         1 R1L       0.045867
     64 H15         25.2480     9.4730    -5.8930 hc         1 R1L       0.045867
     65 H16         26.4220     8.3850    -6.6530 hc         1 R1L       0.045867
     66 H17         13.8060     9.5760     8.6280 ha         1 R1L       0.119000
     67 H18         14.0840     7.8530     6.8460 ha         1 R1L       0.119000
     68 H19         19.4810     7.8490     3.8030 ha         1 R1L       0.130000
     69 H20         20.3070     1.8050    -0.1720 h5         1 R1L       0.047100
     70 H21         17.7620     2.8110     3.3190 hn         1 R1L       0.500500
     71 H22         18.3940     4.2480     4.0390 hn         1 R1L       0.500500
     72 H23         23.2230     5.2940    -0.1790 h1         1 R1L       0.093700
     73 H24         25.7550     5.6440    -0.4980 hc         1 R1L       0.051700
     74 H25         26.6920     6.3280     0.8280 hc         1 R1L       0.051700
     75 H26         26.2040     8.0590    -0.8930 h1         1 R1L       0.054200
     76 H27         25.4880     8.4770     0.6510 h1         1 R1L       0.054200
     77 H29         27.4710     9.6340    -2.1110 h1         1 R1L       0.038200
     78 H30         28.9260     9.0250    -2.9070 h1         1 R1L       0.038200
     79 H31         29.3760    11.1690    -1.8000 h1         1 R1L       0.043950
     80 H32         28.0510    11.9530    -2.6690 h1         1 R1L       0.043950
     81 H34         29.7260    11.6240    -6.0140 h1         1 R1L       0.043950
     82 H35         28.2660    12.2330    -5.2250 h1         1 R1L       0.043950
     83 H36         27.8070    10.1130    -6.3490 h1         1 R1L       0.038200
     84 H37         29.1250     9.3020    -5.4940 h1         1 R1L       0.038200
     85 H38         29.7030    13.6670    -3.6480 h1         1 R1L       0.048700
     86 H39         32.0610    12.0720    -2.3220 h1         1 R1L       0.055450
     87 H40         31.1360    13.4650    -1.6120 h1         1 R1L       0.055450
     88 H41         31.4510    13.8770    -5.4200 h1         1 R1L       0.055450
     89 H42         32.2730    12.3490    -4.8830 h1         1 R1L       0.055450
@<TRIPOS>BOND
     1     1     2 ar  
     2     1    21 1   
     3     1    26 ar  
     4     2     3 ar  
     5     2    50 1   
     6     3     8 ar  
     7     3    22 1   
     8     4     5 ar  
     9     4     7 ar  
    10     4    22 1   
    11     5     6 ar  
    12     5    51 1   
    13     6    23 ar  
    14     6    52 1   
    15     7    24 ar  
    16     7    53 1   
    17     8    25 ar  
    18     8    54 1   
    19     9    11 1   
    20     9    26 1   
    21     9    27 2   
    22    10    11 ar  
    23    10    28 1   
    24    10    29 ar  
    25    11    32 ar  
    26    12    34 1   
    27    12    35 1   
    28    12    55 1   
    29    12    56 1   
    30    13    34 1   
    31    13    37 1   
    32    13    57 1   
    33    13    58 1   
    34    14    15 1   
    35    14    37 1   
    36    14    38 2   
    37    15    16 1   
    38    15    17 2   
    39    16    39 3   
    40    17    18 1   
    41    17    59 1   
    42    18    19 1   
    43    18    20 1   
    44    18    40 1   
    45    19    60 1   
    46    19    61 1   
    47    19    62 1   
    48    20    63 1   
    49    20    64 1   
    50    20    65 1   
    51    23    24 ar  
    52    23    66 1   
    53    24    67 1   
    54    25    26 ar  
    55    25    68 1   
    56    27    28 1   
    57    28    34 1   
    58    29    30 ar  
    59    30    31 ar  
    60    30    69 1   
    61    31    32 ar  
    62    32    33 1   
    63    33    70 1   
    64    33    71 1   
    65    34    72 1   
    66    35    36 1   
    67    35    73 1   
    68    35    74 1   
    69    36    37 1   
    70    36    75 1   
    71    36    76 1   
    72    40    41 1   
    73    40    45 1   
    74    41    42 1   
    75    41    77 1   
    76    41    78 1   
    77    42    43 1   
    78    42    79 1   
    79    42    80 1   
    80    43    44 1   
    81    43    46 1   
    82    44    45 1   
    83    44    81 1   
    84    44    82 1   
    85    45    83 1   
    86    45    84 1   
    87    46    47 1   
    88    46    49 1   
    89    46    85 1   
    90    47    48 1   
    91    47    86 1   
    92    47    87 1   
    93    48    49 1   
    94    49    88 1   
    95    49    89 1   
@<TRIPOS>SUBSTRUCTURE
     1 R1L         1 TEMP              0 ****  ****    0 ROOT
