@<TRIPOS>MOLECULE
R1S
   32    35     1     0     0
SMALL
bcc


@<TRIPOS>ATOM
      1 CL1         -6.3040    -1.1490     0.4990 cl         1 R1S      -0.105400
      2 C02         -4.8290    -0.4520    -0.0830 ca         1 R1S       0.027400
      3 C03         -3.8620    -0.0740     0.8320 ca         1 R1S      -0.077000
      4 C04         -2.6990     0.4830     0.3210 ca         1 R1S      -0.077100
      5 C05         -2.4930     0.6570    -1.0550 ca         1 R1S       0.121400
      6 C06         -3.4870     0.2660    -1.9480 ca         1 R1S      -0.073000
      7 C07         -4.6550    -0.2890    -1.4580 ca         1 R1S      -0.117000
      8 N08         -1.2800     1.2050    -1.3960 nc         1 R1S      -0.584100
      9 C09         -0.5880     1.4600    -0.3450 cd         1 R1S       0.607100
     10 N10          0.6500     2.0510    -0.4240 nu         1 R1S      -0.767100
     11 S11          1.8430     1.8970     0.7330 sy         1 R1S       1.351800
     12 O12          2.9300     2.7190     0.2530 o          1 R1S      -0.593300
     13 O13          1.2030     2.1540     2.0070 o          1 R1S      -0.593300
     14 C14          2.2980     0.2150     0.6840 cc         1 R1S      -0.327300
     15 C15          1.9770    -0.6320     1.6930 cd         1 R1S       0.015600
     16 S16          2.4850    -2.2360     1.3850 ss         1 R1S       0.014500
     17 C17          3.1480    -1.7860    -0.1550 ca         1 R1S      -0.054100
     18 C18          3.7760    -2.6370    -1.0600 ca         1 R1S      -0.087000
     19 C19          4.2370    -2.0970    -2.2440 ca         1 R1S      -0.120000
     20 C20          4.0810    -0.7330    -2.5180 ca         1 R1S      -0.107000
     21 C21          3.4650     0.1100    -1.6180 ca         1 R1S      -0.105000
     22 C22          2.9830    -0.4150    -0.4140 ca         1 R1S      -0.002800
     23 S23         -1.3210     1.0670     1.1980 ss         1 R1S      -0.040100
     24 H1          -4.0110    -0.2050     1.8950 ha         1 R1S       0.158000
     25 H2          -3.3450     0.3930    -3.0120 ha         1 R1S       0.155000
     26 H3          -5.4340    -0.5970    -2.1410 ha         1 R1S       0.152000
     27 H4           0.9600     2.2840    -1.3620 hn         1 R1S       0.469800
     28 H5           1.4640    -0.3950     2.6130 h4         1 R1S       0.195000
     29 H6           3.8970    -3.6890    -0.8430 ha         1 R1S       0.142000
     30 H7           4.7260    -2.7360    -2.9670 ha         1 R1S       0.138000
     31 H8           4.4550    -0.3330    -3.4510 ha         1 R1S       0.139000
     32 H9           3.3730     1.1630    -1.8470 ha         1 R1S       0.147000
@<TRIPOS>BOND
     1     1     2 1   
     2     2     3 ar  
     3     2     7 ar  
     4     3     4 ar  
     5     3    24 1   
     6     4     5 ar  
     7     4    23 1   
     8     5     6 ar  
     9     5     8 1   
    10     6     7 ar  
    11     6    25 1   
    12     7    26 1   
    13     8     9 2   
    14     9    10 1   
    15     9    23 1   
    16    10    11 1   
    17    10    27 1   
    18    11    12 2   
    19    11    13 2   
    20    11    14 1   
    21    14    15 2   
    22    14    22 1   
    23    15    16 1   
    24    15    28 1   
    25    16    17 1   
    26    17    18 ar  
    27    17    22 ar  
    28    18    19 ar  
    29    18    29 1   
    30    19    20 ar  
    31    19    30 1   
    32    20    21 ar  
    33    20    31 1   
    34    21    22 ar  
    35    21    32 1   
@<TRIPOS>SUBSTRUCTURE
     1 R1S         1 TEMP              0 ****  ****    0 ROOT
