@<TRIPOS>MOLECULE
R1S
   32    35     1     0     0
SMALL
No Charge or Current Charge


@<TRIPOS>ATOM
      1 Cl1         -5.0410    -2.3660    -0.4410 cl         1 R1S      -0.197000
      2 C02         -3.7630    -1.1820    -0.6880 ca         1 R1S       0.119000
      3 C03         -3.0380    -0.6920     0.4140 ca         1 R1S      -0.059000
      4 C04         -2.0240     0.2520     0.1810 ca         1 R1S      -0.204000
      5 C05         -1.7190     0.7110    -1.0910 ca         1 R1S       0.121400
      6 C06         -2.4450     0.2240    -2.1910 ca         1 R1S      -0.055000
      7 C07         -3.4690    -0.7250    -1.9880 ca         1 R1S      -0.099000
      8 N08         -0.6910     1.6430    -1.2030 nc         1 R1S      -0.584100
      9 C09         -0.2300     1.8240     0.0310 cd         1 R1S       0.607100
     10 N10          0.7670     2.7140     0.1340 nu         1 R1S      -0.822300
     11 S11          2.1790     2.3670     0.9350 sy         1 R1S       1.210200
     12 O12          3.2030     2.9130     0.0430 o          1 R1S      -0.522500
     13 O13          1.9710     2.8450     2.3040 o          1 R1S      -0.522500
     14 C14          2.2370     0.5720     0.9100 cc         1 R1S      -0.327300
     15 C15          2.1440    -0.1820     2.0790 cd         1 R1S      -0.034400
     16 S16          2.1690    -1.9480     1.8270 ss         1 R1S       0.141400
     17 C17          2.3240    -1.6500     0.0880 ca         1 R1S      -0.181000
     18 C18          2.4090    -2.6520    -0.8910 ca         1 R1S      -0.069000
     19 C19          2.5280    -2.2710    -2.2410 ca         1 R1S      -0.102000
     20 C20          2.5630    -0.9050    -2.5890 ca         1 R1S      -0.089000
     21 C21          2.4770     0.0840    -1.5900 ca         1 R1S      -0.087000
     22 C22          2.3540    -0.3070    -0.2430 ca         1 R1S      -0.002800
     23 S23         -1.0100     0.9910     1.4070 ss         1 R1S       0.086800
     24 H1          -3.2610    -1.0390     1.4200 ha         1 R1S       0.140000
     25 H2          -2.2150     0.5760    -3.1930 ha         1 R1S       0.137000
     26 H3          -4.0320    -1.1060    -2.8360 ha         1 R1S       0.134000
     27 H4           1.0740     3.0050    -0.7770 hn         1 R1S       0.525000
     28 H5           2.0480     0.1880     3.0960 h4         1 R1S       0.245000
     29 H6           2.3820    -3.7030    -0.6140 ha         1 R1S       0.124000
     30 H7           2.5950    -3.0320    -3.0160 ha         1 R1S       0.120000
     31 H8           2.6560    -0.6140    -3.6330 ha         1 R1S       0.121000
     32 H9           2.5040     1.1330    -1.8710 ha         1 R1S       0.129000
@<TRIPOS>BOND
     1     1     2 1   
     2     2     3 ar  
     3     2     7 ar  
     4     3     4 ar  
     5     3    24 1   
     6     4     5 ar  
     7     4    23 1   
     8     5     6 ar  
     9     5     8 1   
    10     6     7 ar  
    11     6    25 1   
    12     7    26 1   
    13     8     9 2   
    14     9    10 1   
    15     9    23 1   
    16    10    11 1   
    17    10    27 1   
    18    11    12 2   
    19    11    13 2   
    20    11    14 1   
    21    14    15 2   
    22    14    22 1   
    23    15    16 1   
    24    15    28 1   
    25    16    17 1   
    26    17    18 ar  
    27    17    22 ar  
    28    18    19 ar  
    29    18    29 1   
    30    19    20 ar  
    31    19    30 1   
    32    20    21 ar  
    33    20    31 1   
    34    21    22 ar  
    35    21    32 1   
@<TRIPOS>SUBSTRUCTURE
     1 R1S         1 TEMP              0 ****  ****    0 ROOT
