@<TRIPOS>MOLECULE
R1U
   34    36     1     0     0
SMALL
abcg2


@<TRIPOS>ATOM
      1 N1         -17.7140     8.3770    26.1240 nc         1 R1U      -0.516100
      2 N3         -20.1240     4.7270    26.7610 ns         1 R1U      -0.174000
      3 C4         -17.9670     3.8780    26.0670 ca         1 R1U       0.355900
      4 C5         -18.7920     4.9400    26.3590 ca         1 R1U      -0.114000
      5 C6         -20.5130     4.8730    28.0520 c          1 R1U       0.597100
      6 C7         -21.9920     4.6250    28.2870 c3         1 R1U      -0.113100
      7 C8         -22.2950     4.2860    29.7150 ca         1 R1U      -0.065300
      8 C10        -22.8610     4.9600    31.9600 ca         1 R1U      -0.099000
      9 C13        -22.2620     2.9600    30.1340 ca         1 R1U      -0.092000
     10 C12        -22.5290     2.6530    31.4590 ca         1 R1U       0.122000
     11 C11        -22.8290     3.6400    32.3850 ca         1 R1U      -0.096000
     12 C9         -22.5960     5.2830    30.6370 ca         1 R1U      -0.087000
     13 O          -19.7450     5.2180    28.9280 o          1 R1U      -0.560100
     14 N2         -16.6870     3.9730    25.6610 nb         1 R1U      -0.687000
     15 C3         -16.1500     5.1660    25.5430 ca         1 R1U       0.421900
     16 C14        -18.2190     6.2150    26.2220 ca         1 R1U      -0.001200
     17 N          -18.6750     7.4740    26.3830 na         1 R1U       0.087600
     18 C          -19.9800     7.9290    26.8080 c3         1 R1U       0.080900
     19 C2         -16.8770     6.3260    25.8180 ca         1 R1U      -0.291900
     20 C1         -16.6370     7.7230    25.7850 cd         1 R1U       0.375800
     21 H1         -20.7800     4.3680    26.0830 hn         1 R1U       0.158000
     22 H2         -18.3650     2.8730    26.1630 h4         1 R1U       0.021100
     23 H3         -22.5160     5.5420    27.9960 hc         1 R1U       0.065200
     24 H4         -22.3540     3.8420    27.6170 hc         1 R1U       0.065200
     25 H5         -23.0990     5.7410    32.6700 ha         1 R1U       0.120000
     26 H6         -22.0320     2.1730    29.4270 ha         1 R1U       0.126000
     27 H7         -23.0390     3.3860    33.4150 ha         1 R1U       0.131000
     28 H8         -22.6310     6.3170    30.3170 ha         1 R1U       0.116000
     29 H9         -15.1150     5.2210    25.2230 h4         1 R1U       0.026100
     30 H10        -20.0710     8.9770    26.5420 h1         1 R1U       0.057700
     31 H11        -20.7610     7.3700    26.3000 h1         1 R1U       0.057700
     32 H12        -20.1020     7.8250    27.8850 h1         1 R1U       0.057700
     33 H13        -15.7300     8.2470    25.5230 h4         1 R1U       0.055800
     34 CL         -22.4920     0.9940    31.9660 cl         1 R1U      -0.203000
@<TRIPOS>BOND
     1     1    17 1   
     2     1    20 2   
     3     2     4 1   
     4     2     5 1   
     5     2    21 1   
     6     3     4 ar  
     7     3    14 ar  
     8     3    22 1   
     9     4    16 ar  
    10     5     6 1   
    11     5    13 2   
    12     6     7 1   
    13     6    23 1   
    14     6    24 1   
    15     7     9 ar  
    16     7    12 ar  
    17     8    11 ar  
    18     8    12 ar  
    19     8    25 1   
    20     9    10 ar  
    21     9    26 1   
    22    10    11 ar  
    23    10    34 1   
    24    11    27 1   
    25    12    28 1   
    26    14    15 ar  
    27    15    19 ar  
    28    15    29 1   
    29    16    17 1   
    30    16    19 ar  
    31    17    18 1   
    32    18    30 1   
    33    18    31 1   
    34    18    32 1   
    35    19    20 1   
    36    20    33 1   
@<TRIPOS>SUBSTRUCTURE
     1 R1U         1 TEMP              0 ****  ****    0 ROOT
