@<TRIPOS>MOLECULE
R1U
   34    36     1     0     0
SMALL
No Charge or Current Charge


@<TRIPOS>ATOM
      1 N1         -17.5970     8.2410    25.4260 nc         1 R1U      -0.516100
      2 N3         -20.1300     5.0060    27.3240 ns         1 R1U      -0.174000
      3 C4         -17.9960     3.8750    26.9060 ca         1 R1U       0.355900
      4 C5         -18.7970     5.0430    26.8370 ca         1 R1U      -0.114000
      5 C6         -20.7150     5.7590    28.3290 c          1 R1U       0.597100
      6 C7         -22.1950     5.4530    28.5880 c3         1 R1U      -0.113100
      7 C8         -22.3520     4.5530    29.8090 ca         1 R1U      -0.065300
      8 C10        -22.6150     4.2880    32.2230 ca         1 R1U      -0.099000
      9 C13        -22.3660     3.1520    29.6640 ca         1 R1U      -0.092000
     10 C12        -22.5040     2.3250    30.7930 ca         1 R1U       0.122000
     11 C11        -22.6290     2.8910    32.0720 ca         1 R1U      -0.096000
     12 C9         -22.4760     5.1160    31.0950 ca         1 R1U      -0.087000
     13 O          -20.0960     6.5910    28.9820 o          1 R1U      -0.560100
     14 N2         -16.6940     3.8200    26.5070 nb         1 R1U      -0.687000
     15 C3         -16.1320     4.9510    26.0110 ca         1 R1U       0.421900
     16 C14        -18.1830     6.1870    26.2870 ca         1 R1U      -0.001200
     17 N          -18.6250     7.4720    25.9850 na         1 R1U       0.087600
     18 C          -20.0230     7.9320    26.0060 c3         1 R1U       0.080900
     19 C2         -16.8820     6.1220    25.9080 ca         1 R1U      -0.291900
     20 C1         -16.5350     7.4210    25.4000 cd         1 R1U       0.375800
     21 H1         -20.7260     4.3050    26.9010 hn         1 R1U       0.158000
     22 H2         -18.4070     2.9520    27.3140 h4         1 R1U       0.021100
     23 H3         -22.7240     6.3980    28.7570 hc         1 R1U       0.065200
     24 H4         -22.6260     4.9490    27.7140 hc         1 R1U       0.065200
     25 H5         -22.7100     4.7290    33.2130 ha         1 R1U       0.120000
     26 H6         -22.2710     2.6990    28.6810 ha         1 R1U       0.126000
     27 H7         -22.7350     2.2480    32.9420 ha         1 R1U       0.131000
     28 H8         -22.4630     6.1970    31.2220 ha         1 R1U       0.116000
     29 H9         -15.0910     4.9010    25.6930 h4         1 R1U       0.026100
     30 H10        -20.1510     8.7480    25.2840 h1         1 R1U       0.057700
     31 H11        -20.6940     7.1110    25.7290 h1         1 R1U       0.057700
     32 H12        -20.2760     8.3030    27.0060 h1         1 R1U       0.057700
     33 H13        -15.5940     7.7830    25.0050 h4         1 R1U       0.055800
     34 Cl         -22.5200     0.5770    30.6010 cl         1 R1U      -0.203000
@<TRIPOS>BOND
     1     1    17 1   
     2     1    20 2   
     3     2     4 1   
     4     2     5 1   
     5     2    21 1   
     6     3     4 ar  
     7     3    14 ar  
     8     3    22 1   
     9     4    16 ar  
    10     5     6 1   
    11     5    13 2   
    12     6     7 1   
    13     6    23 1   
    14     6    24 1   
    15     7     9 ar  
    16     7    12 ar  
    17     8    11 ar  
    18     8    12 ar  
    19     8    25 1   
    20     9    10 ar  
    21     9    26 1   
    22    10    11 ar  
    23    10    34 1   
    24    11    27 1   
    25    12    28 1   
    26    14    15 ar  
    27    15    19 ar  
    28    15    29 1   
    29    16    17 1   
    30    16    19 ar  
    31    17    18 1   
    32    18    30 1   
    33    18    31 1   
    34    18    32 1   
    35    19    20 1   
    36    20    33 1   
@<TRIPOS>SUBSTRUCTURE
     1 R1U         1 TEMP              0 ****  ****    0 ROOT
