@<TRIPOS>MOLECULE
R1V
   43    42     1     0     0
SMALL
No Charge or Current Charge


@<TRIPOS>ATOM
      1 C01          7.2210     1.1330    -1.2060 c3         1 R1V      -0.049400
      2 C02          5.8510     0.9210    -0.5870 c2         1 R1V      -0.138400
      3 C03          5.5980    -0.0830     0.2750 c2         1 R1V      -0.200200
      4 C04          4.2880    -0.3870     0.9820 c3         1 R1V      -0.047200
      5 C05          3.3740    -1.3120     0.1490 c3         1 R1V      -0.018200
      6 C06          2.0210    -1.5640     0.8000 c2         1 R1V      -0.189400
      7 C07          0.8970    -0.9550     0.3770 c2         1 R1V      -0.140200
      8 C08         -0.5000    -1.1380     0.9380 c3         1 R1V       0.185000
      9 C10         -2.9120    -0.5380     0.5450 c3         1 R1V       0.020500
     10 C11         -3.5160    -2.0000     0.5810 c          1 R1V       0.692000
     11 C14         -3.8110     0.3930    -0.3160 c3         1 R1V      -0.032400
     12 C15         -3.5100     1.9080    -0.1610 c3         1 R1V      -0.195400
     13 C16         -4.5280     2.7310    -0.9710 c          1 R1V       0.712000
     14 C19          2.0800    -2.5730     1.9410 c3         1 R1V      -0.031900
     15 C20          4.8390     1.9550    -1.0580 c3         1 R1V      -0.049400
     16 N09         -1.4860    -0.4690     0.0720 n7         1 R1V      -0.836400
     17 O12         -3.5240    -2.6610    -0.4510 o          1 R1V      -0.755500
     18 O13         -3.9000    -2.4460     1.6550 o          1 R1V      -0.755500
     19 O17         -4.2730     2.9850    -2.1380 o          1 R1V      -0.767500
     20 O18         -5.5720     3.0580    -0.4260 o          1 R1V      -0.767500
     21 H1           7.6210     2.1210    -0.9500 hc         1 R1V       0.033200
     22 H2           7.9450     0.3860    -0.8600 hc         1 R1V       0.033200
     23 H3           7.1750     1.0640    -2.3000 hc         1 R1V       0.033200
     24 H4           6.3980    -0.7750     0.5430 ha         1 R1V       0.149000
     25 H5           4.4990    -0.8560     1.9500 hc         1 R1V       0.054700
     26 H6           3.7460     0.5370     1.2120 hc         1 R1V       0.054700
     27 H7           3.2300    -0.8470    -0.8350 hc         1 R1V       0.026700
     28 H8           3.8910    -2.2610    -0.0420 hc         1 R1V       0.026700
     29 H9           0.9500    -0.2420    -0.4460 ha         1 R1V       0.158000
     30 H10         -0.7250    -2.2110     1.0110 h1         1 R1V       0.035200
     31 H11         -0.5360    -0.7190     1.9540 h1         1 R1V       0.035200
     32 H12         -2.9600    -0.1600     1.5760 h1         1 R1V       0.030700
     33 H13         -3.7290     0.1090    -1.3730 hc         1 R1V       0.041700
     34 H14         -4.8550     0.2190    -0.0290 hc         1 R1V       0.041700
     35 H15         -3.6080     2.1250     0.9100 hc         1 R1V       0.014700
     36 H16         -2.4970     2.0630    -0.5510 hc         1 R1V       0.014700
     37 H17          2.7270    -2.2210     2.7530 hc         1 R1V       0.025033
     38 H18          1.0950    -2.7680     2.3810 hc         1 R1V       0.025033
     39 H19          2.4750    -3.5350     1.5940 hc         1 R1V       0.025033
     40 H20          4.7610     1.9550    -2.1520 hc         1 R1V       0.033200
     41 H21          3.8320     1.7760    -0.6680 hc         1 R1V       0.033200
     42 H22          5.1360     2.9640    -0.7470 hc         1 R1V       0.033200
     43 H23         -1.4460    -0.9220    -0.8490 hn         1 R1V       0.407000
@<TRIPOS>BOND
     1     1     2 1   
     2     1    21 1   
     3     1    22 1   
     4     1    23 1   
     5     2     3 2   
     6     2    15 1   
     7     3     4 1   
     8     3    24 1   
     9     4     5 1   
    10     4    25 1   
    11     4    26 1   
    12     5     6 1   
    13     5    27 1   
    14     5    28 1   
    15     6     7 2   
    16     6    14 1   
    17     7     8 1   
    18     7    29 1   
    19     8    16 1   
    20     8    30 1   
    21     8    31 1   
    22     9    10 1   
    23     9    11 1   
    24     9    16 1   
    25     9    32 1   
    26    10    17 1   
    27    10    18 1   
    28    11    12 1   
    29    11    33 1   
    30    11    34 1   
    31    12    13 1   
    32    12    35 1   
    33    12    36 1   
    34    13    19 1   
    35    13    20 1   
    36    14    37 1   
    37    14    38 1   
    38    14    39 1   
    39    15    40 1   
    40    15    41 1   
    41    15    42 1   
    42    16    43 1   
@<TRIPOS>SUBSTRUCTURE
     1 R1V         1 TEMP              0 ****  ****    0 ROOT
