@<TRIPOS>MOLECULE
R1V
   43    42     1     0     0
SMALL
bcc


@<TRIPOS>ATOM
      1 C01          7.1670     1.0240    -1.0560 c3         1 R1V      -0.049400
      2 C02          5.7050     1.0160    -0.7130 c2         1 R1V      -0.138400
      3 C03          5.2220     0.1920     0.2210 c2         1 R1V      -0.150200
      4 C04          3.8080     0.0510     0.6910 c3         1 R1V      -0.047200
      5 C05          3.2460    -1.3500     0.4030 c3         1 R1V      -0.018200
      6 C06          1.8640    -1.5580     0.9650 c2         1 R1V      -0.189400
      7 C07          0.8120    -1.6630     0.1490 c2         1 R1V      -0.090200
      8 C08         -0.6310    -1.8440     0.5090 c3         1 R1V       0.185000
      9 C10         -2.8520    -0.9120     0.2080 c3         1 R1V       0.020500
     10 C11         -3.5460    -2.1300    -0.4470 c          1 R1V       0.902600
     11 C14         -3.5860     0.3630    -0.2230 c3         1 R1V      -0.032400
     12 C15         -3.0870     1.6120     0.4830 c3         1 R1V      -0.195400
     13 C16         -3.7500     2.9360     0.0730 c          1 R1V       0.922600
     14 C19          1.7910    -1.6290     2.4630 c3         1 R1V      -0.031900
     15 C20          4.8840     1.9990    -1.4930 c3         1 R1V      -0.049400
     16 N09         -1.4350    -0.7890    -0.0900 n7         1 R1V      -0.781200
     17 O12         -3.0530    -2.5600    -1.5110 o          1 R1V      -0.860800
     18 O13         -4.5740    -2.5580     0.1170 o          1 R1V      -0.860800
     19 O17         -4.5520     2.9210    -0.8830 o          1 R1V      -0.872800
     20 O18         -3.4210     3.9420     0.7390 o          1 R1V      -0.872800
     21 H1           7.6050     2.0090    -0.8750 hc         1 R1V       0.033200
     22 H2           7.7300     0.2930    -0.4770 hc         1 R1V       0.033200
     23 H3           7.3220     0.8070    -2.1160 hc         1 R1V       0.033200
     24 H4           5.9280    -0.4750     0.7130 ha         1 R1V       0.099000
     25 H5           3.7790     0.2380     1.7690 hc         1 R1V       0.054700
     26 H6           3.1550     0.7950     0.2320 hc         1 R1V       0.054700
     27 H7           3.2400    -1.5100    -0.6780 hc         1 R1V       0.026700
     28 H8           3.9280    -2.0960     0.8280 hc         1 R1V       0.026700
     29 H9           1.0040    -1.6110    -0.9220 ha         1 R1V       0.108000
     30 H10         -0.9540    -2.8490     0.1930 h1         1 R1V       0.035200
     31 H11         -0.7690    -1.8060     1.5910 h1         1 R1V       0.035200
     32 H12         -2.9530    -1.0060     1.2970 h1         1 R1V       0.030700
     33 H13         -3.4830     0.4800    -1.3070 hc         1 R1V       0.041700
     34 H14         -4.6540     0.2300    -0.0350 hc         1 R1V       0.041700
     35 H15         -3.2060     1.4910     1.5670 hc         1 R1V       0.014700
     36 H16         -2.0070     1.7020     0.3300 hc         1 R1V       0.014700
     37 H17          2.1160    -0.6930     2.9220 hc         1 R1V       0.025033
     38 H18          0.7940    -1.8490     2.8380 hc         1 R1V       0.025033
     39 H19          2.4640    -2.4050     2.8370 hc         1 R1V       0.025033
     40 H20          5.0120     1.8390    -2.5660 hc         1 R1V       0.033200
     41 H21          3.8190     1.9500    -1.2740 hc         1 R1V       0.033200
     42 H22          5.2160     3.0210    -1.2920 hc         1 R1V       0.033200
     43 H23         -1.3360    -0.8560    -1.0980 hn         1 R1V       0.351800
@<TRIPOS>BOND
     1     1     2 1   
     2     1    21 1   
     3     1    22 1   
     4     1    23 1   
     5     2     3 2   
     6     2    15 1   
     7     3     4 1   
     8     3    24 1   
     9     4     5 1   
    10     4    25 1   
    11     4    26 1   
    12     5     6 1   
    13     5    27 1   
    14     5    28 1   
    15     6     7 2   
    16     6    14 1   
    17     7     8 1   
    18     7    29 1   
    19     8    16 1   
    20     8    30 1   
    21     8    31 1   
    22     9    10 1   
    23     9    11 1   
    24     9    16 1   
    25     9    32 1   
    26    10    17 1   
    27    10    18 1   
    28    11    12 1   
    29    11    33 1   
    30    11    34 1   
    31    12    13 1   
    32    12    35 1   
    33    12    36 1   
    34    13    19 1   
    35    13    20 1   
    36    14    37 1   
    37    14    38 1   
    38    14    39 1   
    39    15    40 1   
    40    15    41 1   
    41    15    42 1   
    42    16    43 1   
@<TRIPOS>SUBSTRUCTURE
     1 R1V         1 TEMP              0 ****  ****    0 ROOT
