@<TRIPOS>MOLECULE
R1W
   65    69     1     0     0
SMALL
abcg2


@<TRIPOS>ATOM
      1 CAA         12.1030    -8.5710    -0.5610 c3         1 R1W      -0.078100
      2 CAB         11.8420    -7.7760     0.7080 c3         1 R1W      -0.156400
      3 CAC         12.1680    -8.5480     1.9690 c          1 R1W       0.602100
      4 CAF         11.6200    -8.8100     4.3210 ca         1 R1W      -0.053000
      5 CAG         10.7420    -9.8080     4.7150 ca         1 R1W      -0.094000
      6 CAH         10.8940   -10.4650     5.9340 ca         1 R1W      -0.011800
      7 CAI         10.0120   -11.5890     6.2780 cc         1 R1W      -0.074400
      8 CAJ          9.8140   -12.7010     5.4840 cd         1 R1W       0.044700
      9 CAK         10.4050   -13.0360     4.1910 ca         1 R1W      -0.108800
     10 CAL         11.7580   -12.8010     3.9300 ca         1 R1W      -0.052500
     11 CAM         12.3090   -13.0690     2.6960 ca         1 R1W      -0.168500
     12 CAN         11.5340   -13.5940     1.6460 ca         1 R1W       0.324000
     13 CAP         13.4080   -14.4200     0.3140 c6         1 R1W       0.204300
     14 CAQ         14.0460   -14.1570    -1.0350 c6         1 R1W       0.155300
     15 CAS         13.8110   -14.4560    -3.3970 c3         1 R1W       0.152100
     16 CAT         11.9110   -13.9530    -2.0300 c6         1 R1W       0.155300
     17 CAU         11.2300   -14.2050    -0.6970 c6         1 R1W       0.204300
     18 CAV         10.1840   -13.8560     1.9210 ca         1 R1W      -0.168500
     19 CAW          9.6370   -13.5750     3.1630 ca         1 R1W      -0.052500
     20 CAY          8.5090   -13.0050     7.2700 ca         1 R1W       0.373500
     21 CBA          7.3840   -12.8590     9.1930 ca         1 R1W       0.360900
     22 CBB          7.9390   -11.6090     9.4700 ca         1 R1W      -0.193000
     23 CBC          8.8360   -11.0550     8.5760 ca         1 R1W       0.195000
     24 CBE          9.1800   -11.7660     7.4290 ca         1 R1W      -0.113800
     25 CBF         11.9430   -10.0730     6.7610 ca         1 R1W      -0.088000
     26 CBG         12.8030    -9.0570     6.3760 ca         1 R1W      -0.113000
     27 CBH         12.6680    -8.4070     5.1520 ca         1 R1W      -0.058300
     28 CBI         13.6130    -7.3180     4.7440 c3         1 R1W      -0.044800
     29 NAE         11.4370    -8.2000     3.0540 ns         1 R1W      -0.179000
     30 NAO         12.0920   -13.8020     0.3950 nh         1 R1W      -0.794400
     31 NAR         13.1900   -14.6250    -2.1030 n3         1 R1W      -0.713600
     32 NAX          8.9070   -13.5330     6.0850 na         1 R1W      -0.316400
     33 NAZ          7.6470   -13.5620     8.1010 nb         1 R1W      -0.680000
     34 OAD         13.0400    -9.3990     2.0140 o          1 R1W      -0.587100
     35 CL1          9.4810    -9.4870     8.8920 cl         1 R1W      -0.184000
     36 H1          11.8600    -7.9710    -1.4370 hc         1 R1W       0.042033
     37 H2          13.1480    -8.8670    -0.6420 hc         1 R1W       0.042033
     38 H3          11.4940    -9.4750    -0.5990 hc         1 R1W       0.042033
     39 H4          12.4630    -6.8740     0.7150 hc         1 R1W       0.053700
     40 H5          10.8080    -7.4260     0.7340 hc         1 R1W       0.053700
     41 H6           9.9380   -10.0930     4.0470 ha         1 R1W       0.123000
     42 H7          12.3950   -12.3980     4.7060 ha         1 R1W       0.117000
     43 H8          13.3550   -12.8420     2.5450 ha         1 R1W       0.120000
     44 H9          13.3290   -15.5050     0.4730 h1         1 R1W       0.045700
     45 H10         14.0640   -14.0260     1.0870 h1         1 R1W       0.045700
     46 H11         15.0000   -14.6870    -1.0780 h1         1 R1W       0.041200
     47 H12         14.2650   -13.0790    -1.1290 h1         1 R1W       0.041200
     48 H13         14.7540   -15.0040    -3.4320 h1         1 R1W       0.031700
     49 H14         13.1630   -14.8540    -4.1790 h1         1 R1W       0.031700
     50 H15         14.0260   -13.4030    -3.6400 h1         1 R1W       0.031700
     51 H16         12.0160   -12.8640    -2.1770 h1         1 R1W       0.041200
     52 H17         11.2610   -14.3240    -2.8260 h1         1 R1W       0.041200
     53 H18         10.3130   -13.6150    -0.6750 h1         1 R1W       0.045700
     54 H19         10.9440   -15.2640    -0.6200 h1         1 R1W       0.045700
     55 H20          9.5390   -14.2860     1.1680 ha         1 R1W       0.120000
     56 H21          8.5830   -13.7760     3.3170 ha         1 R1W       0.117000
     57 H22          6.6840   -13.2950     9.8960 h4         1 R1W       0.023100
     58 H23          7.6580   -11.0850    10.3730 ha         1 R1W       0.135000
     59 H24         12.1010   -10.5760     7.7060 ha         1 R1W       0.120000
     60 H25         13.6100    -8.7670     7.0390 ha         1 R1W       0.113000
     61 H26         13.0800    -6.4150     4.4450 hc         1 R1W       0.044367
     62 H27         14.2830    -7.0590     5.5630 hc         1 R1W       0.044367
     63 H28         14.2290    -7.6220     3.8970 hc         1 R1W       0.044367
     64 H29         10.6750    -7.5480     2.9390 hn         1 R1W       0.153000
     65 H31          8.6380   -14.4440     5.7450 hn         1 R1W       0.365000
@<TRIPOS>BOND
     1     1     2 1   
     2     1    36 1   
     3     1    37 1   
     4     1    38 1   
     5     2     3 1   
     6     2    39 1   
     7     2    40 1   
     8     3    29 1   
     9     3    34 2   
    10     4     5 ar  
    11     4    27 ar  
    12     4    29 1   
    13     5     6 ar  
    14     5    41 1   
    15     6     7 1   
    16     6    25 ar  
    17     7     8 2   
    18     7    24 1   
    19     8     9 1   
    20     8    32 1   
    21     9    10 ar  
    22     9    19 ar  
    23    10    11 ar  
    24    10    42 1   
    25    11    12 ar  
    26    11    43 1   
    27    12    18 ar  
    28    12    30 1   
    29    13    14 1   
    30    13    30 1   
    31    13    44 1   
    32    13    45 1   
    33    14    31 1   
    34    14    46 1   
    35    14    47 1   
    36    15    31 1   
    37    15    48 1   
    38    15    49 1   
    39    15    50 1   
    40    16    17 1   
    41    16    31 1   
    42    16    51 1   
    43    16    52 1   
    44    17    30 1   
    45    17    53 1   
    46    17    54 1   
    47    18    19 ar  
    48    18    55 1   
    49    19    56 1   
    50    20    24 ar  
    51    20    32 1   
    52    20    33 ar  
    53    21    22 ar  
    54    21    33 ar  
    55    21    57 1   
    56    22    23 ar  
    57    22    58 1   
    58    23    24 ar  
    59    23    35 1   
    60    25    26 ar  
    61    25    59 1   
    62    26    27 ar  
    63    26    60 1   
    64    27    28 1   
    65    28    61 1   
    66    28    62 1   
    67    28    63 1   
    68    29    64 1   
    69    32    65 1   
@<TRIPOS>SUBSTRUCTURE
     1 R1W         1 TEMP              0 ****  ****    0 ROOT
