@<TRIPOS>MOLECULE
R1W
   65    69     1     0     0
SMALL
No Charge or Current Charge


@<TRIPOS>ATOM
      1 CAA         10.8740    -6.9420     0.1070 c3         1 R1W      -0.078100
      2 CAB         11.4270    -6.3310     1.4140 c3         1 R1W      -0.156400
      3 CAC         12.0930    -7.3920     2.3010 c          1 R1W       0.602100
      4 CAF         11.6830    -8.6370     4.4820 ca         1 R1W      -0.053000
      5 CAG         10.7490    -9.6440     4.7880 ca         1 R1W      -0.094000
      6 CAH         11.0010   -10.5740     5.8100 ca         1 R1W      -0.011800
      7 CAI         10.0380   -11.6290     6.0930 cc         1 R1W      -0.074400
      8 CAJ          9.7650   -12.6940     5.2310 cd         1 R1W       0.044700
      9 CAK         10.4250   -13.1080     3.9620 ca         1 R1W      -0.108800
     10 CAL         11.6610   -12.5810     3.5210 ca         1 R1W      -0.052500
     11 CAM         12.2400   -13.0050     2.3130 ca         1 R1W      -0.168500
     12 CAN         11.6140   -13.9700     1.5100 ca         1 R1W       0.324000
     13 CAP         13.6230   -14.8950     0.2910 c6         1 R1W       0.204300
     14 CAQ         14.3020   -14.7790    -1.1130 c6         1 R1W       0.155300
     15 CAS         14.1550   -15.3260    -3.5230 c3         1 R1W       0.152100
     16 CAT         12.1190   -14.8050    -2.2150 c6         1 R1W       0.155300
     17 CAU         11.3950   -14.9220    -0.8330 c6         1 R1W       0.204300
     18 CAV         10.3910   -14.5090     1.9440 ca         1 R1W      -0.168500
     19 CAW          9.8080   -14.0900     3.1520 ca         1 R1W      -0.052500
     20 CAY          8.3520   -12.8300     7.0040 ca         1 R1W       0.373500
     21 CBA          7.1830   -12.4380     8.9560 ca         1 R1W       0.360900
     22 CBB          7.9270   -11.2740     9.2200 ca         1 R1W      -0.193000
     23 CBC          8.9300   -10.8900     8.3190 ca         1 R1W       0.195000
     24 CBE          9.1280   -11.7150     7.2010 ca         1 R1W      -0.113800
     25 CBF         12.1910   -10.4840     6.5490 ca         1 R1W      -0.088000
     26 CBG         13.1160    -9.4640     6.2730 ca         1 R1W      -0.113000
     27 CBH         12.8730    -8.5290     5.2480 ca         1 R1W      -0.058300
     28 CBI         13.8870    -7.4070     5.0380 c3         1 R1W      -0.044800
     29 NAE         11.3610    -7.7490     3.4230 ns         1 R1W      -0.179000
     30 NAO         12.2160   -14.3790     0.2960 nh         1 R1W      -0.794400
     31 NAR         13.4910   -15.4000    -2.2050 n3         1 R1W      -0.713600
     32 NAX          8.7200   -13.4430     5.8250 na         1 R1W      -0.316400
     33 NAZ          7.3850   -13.2110     7.8590 nb         1 R1W      -0.680000
     34 OAD         13.1880    -7.8700     2.0270 o          1 R1W      -0.587100
     35 Cl1          9.8560    -9.4210     8.6150 cl         1 R1W      -0.184000
     36 H1          10.4040    -6.1670    -0.5100 hc         1 R1W       0.042033
     37 H2          11.6790    -7.4040    -0.4780 hc         1 R1W       0.042033
     38 H3          10.1220    -7.7100     0.3260 hc         1 R1W       0.042033
     39 H4          12.1740    -5.5730     1.1490 hc         1 R1W       0.053700
     40 H5          10.5960    -5.8580     1.9510 hc         1 R1W       0.053700
     41 H6           9.8280    -9.7210     4.2130 ha         1 R1W       0.123000
     42 H7          12.2140   -11.8590     4.1090 ha         1 R1W       0.117000
     43 H8          13.1850   -12.5720     1.9980 ha         1 R1W       0.120000
     44 H9          13.6260   -15.9530     0.5940 h1         1 R1W       0.045700
     45 H10         14.2430   -14.3520     1.0180 h1         1 R1W       0.045700
     46 H11         15.2940   -15.2520    -1.0600 h1         1 R1W       0.041200
     47 H12         14.4690   -13.7130    -1.3290 h1         1 R1W       0.041200
     48 H13         15.1390   -15.8130    -3.4890 h1         1 R1W       0.031700
     49 H14         13.5530   -15.8320    -4.2900 h1         1 R1W       0.031700
     50 H15         14.2990   -14.2810    -3.8320 h1         1 R1W       0.031700
     51 H16         12.1750   -13.7400    -2.4870 h1         1 R1W       0.041200
     52 H17         11.4960   -15.2960    -2.9770 h1         1 R1W       0.041200
     53 H18         10.4380   -14.3830    -0.9010 h1         1 R1W       0.045700
     54 H19         11.1630   -15.9810    -0.6480 h1         1 R1W       0.045700
     55 H20          9.8850   -15.2660     1.3530 ha         1 R1W       0.120000
     56 H21          8.8570   -14.5300     3.4410 ha         1 R1W       0.117000
     57 H22          6.3970   -12.7600     9.6380 h4         1 R1W       0.023100
     58 H23          7.7200   -10.6840    10.1070 ha         1 R1W       0.135000
     59 H24         12.3930   -11.1990     7.3420 ha         1 R1W       0.120000
     60 H25         14.0250    -9.3980     6.8670 ha         1 R1W       0.113000
     61 H26         13.4100    -6.4790     4.7030 hc         1 R1W       0.044367
     62 H27         14.4170    -7.1720     5.9690 hc         1 R1W       0.044367
     63 H28         14.6430    -7.6920     4.2970 hc         1 R1W       0.044367
     64 H29         10.4470    -7.3200     3.4920 hn         1 R1W       0.153000
     65 H31          8.3140   -14.2960     5.4700 hn         1 R1W       0.365000
@<TRIPOS>BOND
     1     1     2 1   
     2     1    36 1   
     3     1    37 1   
     4     1    38 1   
     5     2     3 1   
     6     2    39 1   
     7     2    40 1   
     8     3    29 1   
     9     3    34 2   
    10     4     5 ar  
    11     4    27 ar  
    12     4    29 1   
    13     5     6 ar  
    14     5    41 1   
    15     6     7 1   
    16     6    25 ar  
    17     7     8 2   
    18     7    24 1   
    19     8     9 1   
    20     8    32 1   
    21     9    10 ar  
    22     9    19 ar  
    23    10    11 ar  
    24    10    42 1   
    25    11    12 ar  
    26    11    43 1   
    27    12    18 ar  
    28    12    30 1   
    29    13    14 1   
    30    13    30 1   
    31    13    44 1   
    32    13    45 1   
    33    14    31 1   
    34    14    46 1   
    35    14    47 1   
    36    15    31 1   
    37    15    48 1   
    38    15    49 1   
    39    15    50 1   
    40    16    17 1   
    41    16    31 1   
    42    16    51 1   
    43    16    52 1   
    44    17    30 1   
    45    17    53 1   
    46    17    54 1   
    47    18    19 ar  
    48    18    55 1   
    49    19    56 1   
    50    20    24 ar  
    51    20    32 1   
    52    20    33 ar  
    53    21    22 ar  
    54    21    33 ar  
    55    21    57 1   
    56    22    23 ar  
    57    22    58 1   
    58    23    24 ar  
    59    23    35 1   
    60    25    26 ar  
    61    25    59 1   
    62    26    27 ar  
    63    26    60 1   
    64    27    28 1   
    65    28    61 1   
    66    28    62 1   
    67    28    63 1   
    68    29    64 1   
    69    32    65 1   
@<TRIPOS>SUBSTRUCTURE
     1 R1W         1 TEMP              0 ****  ****    0 ROOT
