@<TRIPOS>MOLECULE
R1X
   19    19     1     0     0
SMALL
No Charge or Current Charge


@<TRIPOS>ATOM
      1 O2           2.7310    -0.0430     0.1770 oh         1 R1X      -0.716000
      2 C2           1.3400     0.1500     0.5220 c5         1 R1X       0.092300
      3 C3           0.4990    -1.1090     0.1020 c5         1 R1X       0.150300
      4 O3           1.2470    -1.8260    -0.8830 oh         1 R1X      -0.710000
      5 C1           0.6660     1.3280    -0.2710 c5         1 R1X       0.121600
      6 O4          -0.2920     0.7080    -1.1540 os         1 R1X      -0.430000
      7 C4          -0.8020    -0.4680    -0.4760 c5         1 R1X       0.159300
      8 C5          -1.8600    -0.0940     0.6130 c3         1 R1X       0.152600
      9 O5          -3.0820     0.3800     0.0180 oh         1 R1X      -0.699000
     10 HO2          3.2450     0.6880     0.6010 ho         1 R1X       0.517000
     11 H2           1.2400     0.3270     1.6020 h1         1 R1X       0.044700
     12 H3           0.2830    -1.7570     0.9630 h1         1 R1X       0.052700
     13 HO3          2.1210    -1.3510    -0.8130 ho         1 R1X       0.524000
     14 H1           0.1400     2.0150     0.4060 h1         1 R1X       0.054700
     15 H1'A         1.3840     1.9110    -0.8640 h1         1 R1X       0.054700
     16 H4          -1.2800    -1.1340    -1.2060 h1         1 R1X       0.093700
     17 H5          -2.0680    -0.9920     1.2100 h1         1 R1X       0.018700
     18 H5'A        -1.4500     0.6600     1.2980 h1         1 R1X       0.018700
     19 HO5         -3.6930     0.6120     0.7570 ho         1 R1X       0.501000
@<TRIPOS>BOND
     1     1     2 1   
     2     1    10 1   
     3     2     3 1   
     4     2     5 1   
     5     2    11 1   
     6     3     4 1   
     7     3     7 1   
     8     3    12 1   
     9     4    13 1   
    10     5     6 1   
    11     5    14 1   
    12     5    15 1   
    13     6     7 1   
    14     7     8 1   
    15     7    16 1   
    16     8     9 1   
    17     8    17 1   
    18     8    18 1   
    19     9    19 1   
@<TRIPOS>SUBSTRUCTURE
     1 R1X         1 TEMP              0 ****  ****    0 ROOT
