@<TRIPOS>MOLECULE
R1X
   19    19     1     0     0
SMALL
abcg2


@<TRIPOS>ATOM
      1 O2           2.6210     0.1180     0.6870 oh         1 R1X      -0.716000
      2 C2           1.2450     0.3520     0.5800 c5         1 R1X       0.092300
      3 C3           0.5170    -0.9060     0.1070 c5         1 R1X       0.150300
      4 O3           1.1880    -1.5220    -0.9660 oh         1 R1X      -0.710000
      5 C1           0.8330     1.3510    -0.4970 c5         1 R1X       0.121600
      6 O4          -0.5040     1.0170    -0.8180 os         1 R1X      -0.430000
      7 C4          -0.7910    -0.3210    -0.4150 c5         1 R1X       0.159300
      8 C5          -1.8830    -0.3360     0.6360 c3         1 R1X       0.152600
      9 O5          -3.0340     0.2670     0.0970 oh         1 R1X      -0.699000
     10 HO2          3.0490     0.9180     1.0070 ho         1 R1X       0.517000
     11 H2           0.8160     0.6570     1.5440 h1         1 R1X       0.044700
     12 H3           0.3500    -1.6140     0.9300 h1         1 R1X       0.052700
     13 HO3          2.0850    -1.7300    -0.6840 ho         1 R1X       0.524000
     14 H1           0.8690     2.3880    -0.1540 h1         1 R1X       0.054700
     15 H1'A         1.4920     1.2590    -1.3690 h1         1 R1X       0.054700
     16 H4          -1.1370    -0.8920    -1.2850 h1         1 R1X       0.093700
     17 H5          -2.0660    -1.3800     0.9180 h1         1 R1X       0.018700
     18 H5'A        -1.5400     0.1840     1.5420 h1         1 R1X       0.018700
     19 HO5         -3.7410     0.1920     0.7440 ho         1 R1X       0.501000
@<TRIPOS>BOND
     1     1     2 1   
     2     1    10 1   
     3     2     3 1   
     4     2     5 1   
     5     2    11 1   
     6     3     4 1   
     7     3     7 1   
     8     3    12 1   
     9     4    13 1   
    10     5     6 1   
    11     5    14 1   
    12     5    15 1   
    13     6     7 1   
    14     7     8 1   
    15     7    16 1   
    16     8     9 1   
    17     8    17 1   
    18     8    18 1   
    19     9    19 1   
@<TRIPOS>SUBSTRUCTURE
     1 R1X         1 TEMP              0 ****  ****    0 ROOT
