@<TRIPOS>MOLECULE
R1Y
   30    31     1     0     0
SMALL
abcg2


@<TRIPOS>ATOM
      1 C01        -27.8510   -33.0250     6.8290 cc         1 R1Y       0.429400
      2 C03        -29.0210   -34.6260     6.1330 cd         1 R1Y       0.500700
      3 C06        -25.6520   -33.7510     5.8380 c5         1 R1Y       0.295300
      4 C07        -24.8480   -35.0040     6.2230 c5         1 R1Y       0.092300
      5 C08        -23.7170   -34.9790     5.1950 c5         1 R1Y       0.147300
      6 C09        -24.4190   -34.4380     3.9580 c5         1 R1Y       0.163300
      7 C11        -25.0020   -35.5230     3.0760 c3         1 R1Y       0.149600
      8 C15        -30.1760   -35.5140     5.8520 cf         1 R1Y       0.583200
      9 N02        -29.0900   -33.4740     6.8590 nd         1 R1Y      -0.641000
     10 N04        -27.8100   -34.8980     5.6730 nc         1 R1Y      -0.550800
     11 N05        -27.0690   -33.8670     6.1240 na         1 R1Y      -0.084700
     12 N16        -31.3370   -35.1820     6.2910 n2         1 R1Y      -0.790100
     13 N17        -29.8550   -36.6440     5.1610 nv         1 R1Y      -1.097200
     14 O10        -25.4580   -33.5550     4.4550 os         1 R1Y      -0.422000
     15 O12        -25.6070   -34.9000     1.9460 oh         1 R1Y      -0.705000
     16 O13        -22.7040   -34.0570     5.5770 oh         1 R1Y      -0.711000
     17 O14        -24.3390   -34.9620     7.5390 oh         1 R1Y      -0.717000
     18 H1         -27.4740   -32.1230     7.2850 h5         1 R1Y       0.071100
     19 H2         -25.3040   -32.8870     6.4080 h2         1 R1Y       0.092700
     20 H3         -25.4620   -35.8910     6.0660 h1         1 R1Y       0.075700
     21 H4         -23.2960   -35.9740     5.0340 h1         1 R1Y       0.064700
     22 H5         -23.7340   -33.8260     3.3700 h1         1 R1Y       0.108700
     23 H6         -25.7370   -36.1130     3.6330 h1         1 R1Y       0.030200
     24 H7         -24.1880   -36.1880     2.7660 h1         1 R1Y       0.030200
     25 H8         -32.0330   -35.8780     6.0200 hn         1 R1Y       0.369400
     26 H9         -28.9590   -36.6980     4.7050 hn         1 R1Y       0.478500
     27 H10        -30.6000   -37.1980     4.7710 hn         1 R1Y       0.478500
     28 H11        -26.0310   -35.5840     1.4140 ho         1 R1Y       0.505000
     29 H12        -22.4510   -34.2600     6.4880 ho         1 R1Y       0.528000
     30 H13        -24.9730   -35.3710     8.1390 ho         1 R1Y       0.527000
@<TRIPOS>BOND
     1     1     9 2   
     2     1    11 1   
     3     1    18 1   
     4     2     8 1   
     5     2     9 1   
     6     2    10 2   
     7     3     4 1   
     8     3    11 1   
     9     3    14 1   
    10     3    19 1   
    11     4     5 1   
    12     4    17 1   
    13     4    20 1   
    14     5     6 1   
    15     5    16 1   
    16     5    21 1   
    17     6     7 1   
    18     6    14 1   
    19     6    22 1   
    20     7    15 1   
    21     7    23 1   
    22     7    24 1   
    23     8    12 2   
    24     8    13 1   
    25    10    11 1   
    26    12    25 1   
    27    13    26 1   
    28    13    27 1   
    29    15    28 1   
    30    16    29 1   
    31    17    30 1   
@<TRIPOS>SUBSTRUCTURE
     1 R1Y         1 TEMP              0 ****  ****    0 ROOT
