@<TRIPOS>MOLECULE
R1Y
   30    31     1     0     0
SMALL
No Charge or Current Charge


@<TRIPOS>ATOM
      1 C01        -27.8300   -32.9210     6.6690 cc         1 R1Y       0.429400
      2 C03        -28.9930   -34.6160     6.0430 cd         1 R1Y       0.500700
      3 C06        -25.5630   -33.7700     5.9090 c5         1 R1Y       0.295300
      4 C07        -24.7220   -35.0680     6.2120 c5         1 R1Y       0.092300
      5 C08        -23.5720   -34.9400     5.1740 c5         1 R1Y       0.147300
      6 C09        -24.3530   -34.3570     3.9540 c5         1 R1Y       0.163300
      7 C11        -25.1650   -35.4190     3.1490 c3         1 R1Y       0.149600
      8 C15        -30.1960   -35.5330     5.7950 cf         1 R1Y       0.583200
      9 N02        -29.0740   -33.3640     6.6560 nd         1 R1Y      -0.641000
     10 N04        -27.7480   -34.9520     5.6870 nc         1 R1Y      -0.550800
     11 N05        -27.0220   -33.8660     6.0850 na         1 R1Y      -0.084700
     12 N16        -31.4020   -35.2250     6.1060 n2         1 R1Y      -0.790100
     13 N17        -30.0010   -36.7420     5.2200 nv         1 R1Y      -1.097200
     14 O10        -25.2450   -33.3750     4.5470 os         1 R1Y      -0.422000
     15 O12        -25.6750   -34.8670     1.9210 oh         1 R1Y      -0.705000
     16 O13        -22.5610   -34.0600     5.6820 oh         1 R1Y      -0.711000
     17 O14        -24.1920   -35.1300     7.5560 oh         1 R1Y      -0.717000
     18 H1         -27.4660   -31.9790     7.0610 h5         1 R1Y       0.071100
     19 H2         -25.2340   -32.9690     6.5830 h2         1 R1Y       0.092700
     20 H3         -25.3130   -35.9700     5.9940 h1         1 R1Y       0.075700
     21 H4         -23.1380   -35.9220     4.9390 h1         1 R1Y       0.064700
     22 H5         -23.6680   -33.8540     3.2590 h1         1 R1Y       0.108700
     23 H6         -25.9860   -35.8050     3.7660 h1         1 R1Y       0.030200
     24 H7         -24.4990   -36.2640     2.9260 h1         1 R1Y       0.030200
     25 H8         -31.9750   -36.0740     6.0440 hn         1 R1Y       0.369400
     26 H9         -29.0650   -36.9410     4.8750 hn         1 R1Y       0.478500
     27 H10        -30.7590   -37.1860     4.7130 hn         1 R1Y       0.478500
     28 H11        -26.2280   -35.5640     1.4970 ho         1 R1Y       0.505000
     29 H12        -22.6470   -34.1690     6.6630 ho         1 R1Y       0.528000
     30 H13        -24.9040   -35.4870     8.1430 ho         1 R1Y       0.527000
@<TRIPOS>BOND
     1     1     9 2   
     2     1    11 1   
     3     1    18 1   
     4     2     8 1   
     5     2     9 1   
     6     2    10 2   
     7     3     4 1   
     8     3    11 1   
     9     3    14 1   
    10     3    19 1   
    11     4     5 1   
    12     4    17 1   
    13     4    20 1   
    14     5     6 1   
    15     5    16 1   
    16     5    21 1   
    17     6     7 1   
    18     6    14 1   
    19     6    22 1   
    20     7    15 1   
    21     7    23 1   
    22     7    24 1   
    23     8    12 2   
    24     8    13 1   
    25    10    11 1   
    26    12    25 1   
    27    13    26 1   
    28    13    27 1   
    29    15    28 1   
    30    16    29 1   
    31    17    30 1   
@<TRIPOS>SUBSTRUCTURE
     1 R1Y         1 TEMP              0 ****  ****    0 ROOT
