@<TRIPOS>MOLECULE
R20
   21    22     1     0     0
SMALL
No Charge or Current Charge


@<TRIPOS>ATOM
      1 C1           0.1440    -0.2530     0.0750 ca         1 R20      -0.106500
      2 C2          -1.3050     0.0140     0.1110 cc         1 R20       0.265500
      3 C3           1.0610     0.8230     0.1160 ca         1 R20      -0.080000
      4 C4           0.6530    -1.5680    -0.0310 ca         1 R20      -0.108000
      5 C5          -2.2380    -0.9690     0.2280 cd         1 R20      -0.203000
      6 C7           2.4500     0.5960     0.0710 ca         1 R20      -0.077300
      7 C8           2.0380    -1.7970    -0.0790 ca         1 R20      -0.110000
      8 C11          2.9360    -0.7190    -0.0280 ca         1 R20      -0.106000
      9 C12          3.4180     1.7690     0.1180 c3         1 R20      -0.046800
     10 N6          -1.8830     1.2490     0.0500 nc         1 R20      -0.357000
     11 N9          -3.4260    -0.2610     0.2280 na         1 R20      -0.009200
     12 N10         -3.1810     1.0900     0.1180 nd         1 R20      -0.195800
     13 H3           0.6970     1.8450     0.1870 ha         1 R20       0.133000
     14 H4          -0.0140    -2.4230    -0.0820 ha         1 R20       0.105000
     15 H5          -2.1700    -2.0450     0.3120 h4         1 R20       0.168000
     16 H8           2.4170    -2.8130    -0.1600 ha         1 R20       0.111000
     17 H11          4.0060    -0.9070    -0.0690 ha         1 R20       0.111000
     18 H121         3.5840     2.1790    -0.8850 hc         1 R20       0.043033
     19 H122         3.0350     2.5780     0.7520 hc         1 R20       0.043033
     20 H123         4.3930     1.4700     0.5230 hc         1 R20       0.043033
     21 HN9         -4.3730    -0.6270     0.2980 hn         1 R20       0.378000
@<TRIPOS>BOND
     1     1     2 1   
     2     1     3 ar  
     3     1     4 ar  
     4     2     5 2   
     5     2    10 1   
     6     3     6 ar  
     7     3    13 1   
     8     4     7 ar  
     9     4    14 1   
    10     5    11 1   
    11     5    15 1   
    12     6     8 ar  
    13     6     9 1   
    14     7     8 ar  
    15     7    16 1   
    16     8    17 1   
    17     9    18 1   
    18     9    19 1   
    19     9    20 1   
    20    10    12 2   
    21    11    12 1   
    22    11    21 1   
@<TRIPOS>SUBSTRUCTURE
     1 R20         1 TEMP              0 ****  ****    0 ROOT
