@<TRIPOS>MOLECULE
R20
   21    22     1     0     0
SMALL
abcg2


@<TRIPOS>ATOM
      1 C1           0.1790    -0.2870     0.0890 ca         1 R20      -0.106500
      2 C2          -1.2630    -0.0610     0.1480 cc         1 R20       0.265500
      3 C3           1.0660     0.7900     0.1310 ca         1 R20      -0.080000
      4 C4           0.6930    -1.5790    -0.0090 ca         1 R20      -0.108000
      5 C5          -2.2960    -0.9710     0.1560 cd         1 R20      -0.203000
      6 C7           2.4420     0.6000     0.0720 ca         1 R20      -0.077300
      7 C8           2.0630    -1.7800    -0.0630 ca         1 R20      -0.110000
      8 C11          2.9330    -0.7010    -0.0230 ca         1 R20      -0.106000
      9 C12          3.3800     1.7730     0.0880 c3         1 R20      -0.046800
     10 N6          -1.8140     1.1760     0.2060 nc         1 R20      -0.357000
     11 N9          -3.3930    -0.2070     0.2180 na         1 R20      -0.009200
     12 N10         -3.0960     1.0760     0.2470 nd         1 R20      -0.195800
     13 H3           0.6740     1.7970     0.2130 ha         1 R20       0.133000
     14 H4           0.0280    -2.4330    -0.0410 ha         1 R20       0.105000
     15 H5          -2.3390    -2.0460     0.1270 h4         1 R20       0.168000
     16 H8           2.4540    -2.7870    -0.1360 ha         1 R20       0.111000
     17 H11          4.0030    -0.8680    -0.0630 ha         1 R20       0.111000
     18 H121         3.6400     2.0770    -0.9280 hc         1 R20       0.043033
     19 H122         2.9360     2.6360     0.5810 hc         1 R20       0.043033
     20 H123         4.3110     1.5310     0.6000 hc         1 R20       0.043033
     21 HN9         -4.3580    -0.5040     0.2410 hn         1 R20       0.378000
@<TRIPOS>BOND
     1     1     2 1   
     2     1     3 ar  
     3     1     4 ar  
     4     2     5 2   
     5     2    10 1   
     6     3     6 ar  
     7     3    13 1   
     8     4     7 ar  
     9     4    14 1   
    10     5    11 1   
    11     5    15 1   
    12     6     8 ar  
    13     6     9 1   
    14     7     8 ar  
    15     7    16 1   
    16     8    17 1   
    17     9    18 1   
    18     9    19 1   
    19     9    20 1   
    20    10    12 2   
    21    11    12 1   
    22    11    21 1   
@<TRIPOS>SUBSTRUCTURE
     1 R20         1 TEMP              0 ****  ****    0 ROOT
