@<TRIPOS>MOLECULE
R21
   41    42     1     0     0
SMALL
No Charge or Current Charge


@<TRIPOS>ATOM
      1 Cl           6.9940    -1.7550     1.3830 cl         1 R21      -0.205000
      2 OAA         -7.5100    -0.1130    -1.4840 o          1 R21      -0.544500
      3 CAC          6.4300    -0.3430    -0.9250 ca         1 R21       0.162100
      4 CAD          5.7200     0.6160    -1.6640 ca         1 R21      -0.144000
      5 CAE          4.6990     1.3660    -1.0540 ca         1 R21      -0.064000
      6 CAG         -3.0460    -0.2570     0.9980 ca         1 R21      -0.130000
      7 CAH         -4.3220    -0.7950     0.7540 ca         1 R21      -0.007000
      8 CAI         -5.2580    -0.0700    -0.0110 ca         1 R21      -0.272500
      9 SAJ         -6.8890    -0.7530    -0.3260 sy         1 R21       1.125600
     10 NAK         -7.7690    -0.2020     0.9310 n8         1 R21      -1.003100
     11 CAL          6.1170    -0.5530     0.4330 ca         1 R21       0.019000
     12 CAM          5.0960     0.1960     1.0430 ca         1 R21      -0.032000
     13 CAN          4.3820     1.1610     0.3030 ca         1 R21      -0.114300
     14 CAO          3.2700     1.9700     0.9670 c3         1 R21      -0.106100
     15 CAP          1.9350     1.2150     0.9110 c          1 R21       0.600100
     16 NAQ          1.0560     1.6500    -0.0570 ns         1 R21      -0.507900
     17 CAR         -0.2780     1.0880    -0.2880 c3         1 R21       0.105000
     18 CAS         -1.3090     1.5790     0.7480 c3         1 R21      -0.067100
     19 CAT         -2.6940     1.0050     0.4850 ca         1 R21      -0.023300
     20 CAU         -3.6310     1.7270    -0.2780 ca         1 R21      -0.130000
     21 CAV         -4.9080     1.1950    -0.5260 ca         1 R21      -0.007000
     22 OAW         -6.8950    -2.2020    -0.1390 o          1 R21      -0.544500
     23 HOAB         7.7970    -1.6760    -0.8660 ho         1 R21       0.481000
     24 HAD          5.9600     0.7780    -2.7120 ha         1 R21       0.133000
     25 HAE          4.1540     2.1040    -1.6390 ha         1 R21       0.113000
     26 HAG         -2.3300    -0.8250     1.5880 ha         1 R21       0.121000
     27 HAH         -4.5780    -1.7720     1.1620 ha         1 R21       0.137500
     28 HNAK        -8.1720    -1.0740     1.2680 hn         1 R21       0.473000
     29 HNAA        -8.5530     0.2170     0.4370 hn         1 R21       0.473000
     30 HAM          4.8580     0.0250     2.0910 ha         1 R21       0.138000
     31 HAO          3.5250     2.1480     2.0180 hc         1 R21       0.064700
     32 HAOA         3.1700     2.9340     0.4540 hc         1 R21       0.064700
     33 HNAQ         1.3640     2.4200    -0.6410 hn         1 R21       0.312500
     34 HAR         -0.6100     1.3760    -1.2950 h1         1 R21       0.062200
     35 HARA        -0.2170    -0.0080    -0.2560 h1         1 R21       0.062200
     36 HAS         -0.9740     1.3000     1.7540 hc         1 R21       0.059200
     37 HASA        -1.3420     2.6750     0.7280 hc         1 R21       0.059200
     38 HAU         -3.3700     2.7020    -0.6820 ha         1 R21       0.121000
     39 HAV         -5.6210     1.7690    -1.1170 ha         1 R21       0.137500
     40 OAB          7.4190    -1.0630    -1.5340 oh         1 R21      -0.526100
     41 OAF          1.6740     0.2850     1.6610 o          1 R21      -0.594100
@<TRIPOS>BOND
     1     1    11 1   
     2     2     9 2   
     3     3     4 ar  
     4     3    11 ar  
     5     3    40 1   
     6     4     5 ar  
     7     4    24 1   
     8     5    13 ar  
     9     5    25 1   
    10     6     7 ar  
    11     6    19 ar  
    12     6    26 1   
    13     7     8 ar  
    14     7    27 1   
    15     8     9 1   
    16     8    21 ar  
    17     9    10 1   
    18     9    22 2   
    19    10    28 1   
    20    10    29 1   
    21    11    12 ar  
    22    12    13 ar  
    23    12    30 1   
    24    13    14 1   
    25    14    15 1   
    26    14    31 1   
    27    14    32 1   
    28    15    16 1   
    29    15    41 2   
    30    16    17 1   
    31    16    33 1   
    32    17    18 1   
    33    17    34 1   
    34    17    35 1   
    35    18    19 1   
    36    18    36 1   
    37    18    37 1   
    38    19    20 ar  
    39    20    21 ar  
    40    20    38 1   
    41    21    39 1   
    42    23    40 1   
@<TRIPOS>SUBSTRUCTURE
     1 R21         1 TEMP              0 ****  ****    0 ROOT
