@<TRIPOS>MOLECULE
R21
   41    42     1     0     0
SMALL
bcc


@<TRIPOS>ATOM
      1 CL           6.7980    -1.7720     1.4370 cl         1 R21      -0.113400
      2 OAA         -7.3180    -0.1190    -1.5370 o          1 R21      -0.615300
      3 CAC          6.3850    -0.4130    -0.8590 ca         1 R21       0.162100
      4 CAD          5.7270     0.5520    -1.6170 ca         1 R21      -0.162000
      5 CAE          4.7150     1.3150    -1.0620 ca         1 R21      -0.082000
      6 CAG         -3.0760    -0.1770     1.1000 ca         1 R21      -0.148000
      7 CAH         -4.3050    -0.7460     0.8190 ca         1 R21      -0.025000
      8 CAI         -5.1770    -0.0820    -0.0350 ca         1 R21      -0.272500
      9 SAJ         -6.7420    -0.8190    -0.3960 sy         1 R21       1.267200
     10 NAK         -7.5650    -0.5340     1.0090 n8         1 R21      -0.892700
     11 CAL          5.9880    -0.5790     0.4680 ca         1 R21      -0.072600
     12 CAM          4.9730     0.1830     1.0230 ca         1 R21      -0.050000
     13 CAN          4.3240     1.1470     0.2630 ca         1 R21      -0.114300
     14 CAO          3.1970     1.9540     0.8440 c3         1 R21      -0.106100
     15 CAP          1.8850     1.1980     0.7150 c          1 R21       0.667100
     16 NAQ          0.9590     1.7830    -0.0610 ns         1 R21      -0.574900
     17 CAR         -0.3560     1.2310    -0.2770 c3         1 R21       0.105000
     18 CAS         -1.3530     1.6340     0.8160 c3         1 R21      -0.067100
     19 CAT         -2.7060     1.0480     0.5450 ca         1 R21      -0.023300
     20 CAU         -3.5980     1.6910    -0.3090 ca         1 R21      -0.148000
     21 CAV         -4.8330     1.1330    -0.6060 ca         1 R21      -0.025000
     22 OAW         -6.5900    -2.2650    -0.4790 o          1 R21      -0.615300
     23 HOAB         7.7420    -1.7650    -0.8260 ho         1 R21       0.442000
     24 HAD          6.0210     0.6990    -2.6480 ha         1 R21       0.151000
     25 HAE          4.2240     2.0590    -1.6780 ha         1 R21       0.131000
     26 HAG         -2.3960    -0.6930     1.7670 ha         1 R21       0.139000
     27 HAH         -4.5740    -1.6950     1.2640 ha         1 R21       0.155500
     28 HNAK        -8.3510    -1.1680     1.1140 hn         1 R21       0.417800
     29 HNAA        -7.8750     0.4280     1.0930 hn         1 R21       0.417800
     30 HAM          4.6970     0.0250     2.0580 ha         1 R21       0.156000
     31 HAO          3.3690     2.1350     1.9070 hc         1 R21       0.064700
     32 HAOA         3.1460     2.9310     0.3600 hc         1 R21       0.064700
     33 HNAQ         1.1580     2.6890    -0.4530 hn         1 R21       0.312500
     34 HAR         -0.7100     1.5800    -1.2480 h1         1 R21       0.062200
     35 HARA        -0.2830     0.1440    -0.3330 h1         1 R21       0.062200
     36 HAS         -0.9810     1.2950     1.7850 hc         1 R21       0.059200
     37 HASA        -1.4170     2.7240     0.8560 hc         1 R21       0.059200
     38 HAU         -3.3300     2.6430    -0.7490 ha         1 R21       0.139000
     39 HAV         -5.5090     1.6490    -1.2740 ha         1 R21       0.155500
     40 OAB          7.3630    -1.1230    -1.4390 oh         1 R21      -0.487100
     41 OAF          1.7160     0.1210     1.2660 o          1 R21      -0.594100
@<TRIPOS>BOND
     1     1    11 1   
     2     2     9 2   
     3     3     4 ar  
     4     3    11 ar  
     5     3    40 1   
     6     4     5 ar  
     7     4    24 1   
     8     5    13 ar  
     9     5    25 1   
    10     6     7 ar  
    11     6    19 ar  
    12     6    26 1   
    13     7     8 ar  
    14     7    27 1   
    15     8     9 1   
    16     8    21 ar  
    17     9    10 1   
    18     9    22 2   
    19    10    28 1   
    20    10    29 1   
    21    11    12 ar  
    22    12    13 ar  
    23    12    30 1   
    24    13    14 1   
    25    14    15 1   
    26    14    31 1   
    27    14    32 1   
    28    15    16 1   
    29    15    41 2   
    30    16    17 1   
    31    16    33 1   
    32    17    18 1   
    33    17    34 1   
    34    17    35 1   
    35    18    19 1   
    36    18    36 1   
    37    18    37 1   
    38    19    20 ar  
    39    20    21 ar  
    40    20    38 1   
    41    21    39 1   
    42    23    40 1   
@<TRIPOS>SUBSTRUCTURE
     1 R21         1 TEMP              0 ****  ****    0 ROOT
