@<TRIPOS>MOLECULE
R22
   46    48     1     0     0
SMALL
bcc


@<TRIPOS>ATOM
      1 C1          -0.7490     1.7080     0.2160 ca         1 R22       0.137100
      2 C2          -0.2690     2.7540    -0.5560 ca         1 R22      -0.175000
      3 C3          -0.4160     4.0620    -0.1070 ca         1 R22      -0.042300
      4 C4          -1.0410     4.2880     1.1170 ca         1 R22      -0.155000
      5 C5          -1.5180     3.2380     1.8940 ca         1 R22      -0.042300
      6 C6          -1.3730     1.9320     1.4340 ca         1 R22      -0.175000
      7 O7          -0.5880     0.4500    -0.3110 os         1 R22      -0.247200
      8 C8           0.1180     5.2020    -0.9240 c3         1 R22      -0.049300
      9 C9          -2.1660     3.4980     3.2230 c3         1 R22      -0.049300
     10 N1          -0.9540    -2.8680     1.9660 ns         1 R22      -0.428100
     11 C11         -2.0400    -2.5870     1.1570 c          1 R22       0.718700
     12 C14         -1.8720    -1.3810     0.3920 cc         1 R22      -0.147400
     13 C18         -0.7350    -0.6320     0.4880 cd         1 R22       0.253100
     14 C19          0.3250    -0.9860     1.3640 cd         1 R22      -0.220200
     15 C20          0.1800    -2.1430     2.0840 cc         1 R22       0.120400
     16 C7           1.2260    -2.6720     3.0080 c3         1 R22      -0.079900
     17 I9          -3.4330    -0.8390    -0.8690 i          1 R22      -0.089800
     18 C10          1.5870    -0.1880     1.4280 c3         1 R22       0.082900
     19 S11          2.7170    -0.7820     0.1280 ss         1 R22      -0.319200
     20 C12          4.1390     0.3230     0.4400 c3         1 R22      -0.009600
     21 C13          5.2290     0.0280    -0.5130 cc         1 R22       0.239000
     22 O14          5.8910    -1.1420    -0.3720 os         1 R22      -0.321800
     23 C15          6.8230    -1.2060    -1.3460 cc         1 R22       0.240600
     24 C16          6.7720    -0.0950    -2.1160 cd         1 R22      -0.271300
     25 C17          5.7260     0.7120    -1.5730 cd         1 R22      -0.244300
     26 H2           0.2130     2.5440    -1.5040 ha         1 R22       0.148000
     27 H4          -1.1620     5.3060     1.4700 ha         1 R22       0.132000
     28 H6          -1.7570     1.1090     2.0250 ha         1 R22       0.148000
     29 H8'1         1.2070     5.2520    -0.8550 hc         1 R22       0.044867
     30 H8'2        -0.1320     5.0910    -1.9790 hc         1 R22       0.044867
     31 H8'3        -0.2760     6.1580    -0.5810 hc         1 R22       0.044867
     32 H9'1        -1.4380     3.4090     4.0320 hc         1 R22       0.044867
     33 H9'2        -2.5880     4.5010     3.2730 hc         1 R22       0.044867
     34 H9'3        -2.9640     2.7840     3.4270 hc         1 R22       0.044867
     35 HN1         -1.0320    -3.7150     2.5140 hn         1 R22       0.329500
     36 H71          1.3450    -2.0170     3.8720 hc         1 R22       0.067033
     37 H72          0.9750    -3.6660     3.3730 hc         1 R22       0.067033
     38 H73          2.1890    -2.7310     2.5020 hc         1 R22       0.067033
     39 H101         1.4080     0.8770     1.2850 h1         1 R22       0.065700
     40 H102         2.0680    -0.2990     2.4000 h1         1 R22       0.065700
     41 H121         3.8270     1.3590     0.3090 h1         1 R22       0.072700
     42 H122         4.4670     0.1930     1.4740 h1         1 R22       0.072700
     43 H15          7.4410    -2.0880    -1.3670 h4         1 R22       0.053100
     44 H16          7.3990     0.1260    -2.9650 ha         1 R22       0.161000
     45 H17          5.3880     1.6740    -1.9230 ha         1 R22       0.161000
     46 O8          -3.0120    -3.3270     1.1400 o          1 R22      -0.603500
@<TRIPOS>BOND
     1     1     2 ar  
     2     1     6 ar  
     3     1     7 1   
     4     2     3 ar  
     5     2    26 1   
     6     3     4 ar  
     7     3     8 1   
     8     4     5 ar  
     9     4    27 1   
    10     5     6 ar  
    11     5     9 1   
    12     6    28 1   
    13     7    13 1   
    14     8    29 1   
    15     8    30 1   
    16     8    31 1   
    17     9    32 1   
    18     9    33 1   
    19     9    34 1   
    20    10    11 1   
    21    10    15 1   
    22    10    35 1   
    23    11    12 1   
    24    11    46 2   
    25    12    13 2   
    26    12    17 1   
    27    13    14 1   
    28    14    15 2   
    29    14    18 1   
    30    15    16 1   
    31    16    36 1   
    32    16    37 1   
    33    16    38 1   
    34    18    19 1   
    35    18    39 1   
    36    18    40 1   
    37    19    20 1   
    38    20    21 1   
    39    20    41 1   
    40    20    42 1   
    41    21    22 1   
    42    21    25 2   
    43    22    23 1   
    44    23    24 2   
    45    23    43 1   
    46    24    25 1   
    47    24    44 1   
    48    25    45 1   
@<TRIPOS>SUBSTRUCTURE
     1 R22         1 TEMP              0 ****  ****    0 ROOT
