@<TRIPOS>MOLECULE
R22
   46    48     1     0     0
SMALL
No Charge or Current Charge


@<TRIPOS>ATOM
      1 C1          -0.7490     1.8660     0.2240 ca         1 R22       0.137100
      2 C2          -0.5300     2.9780    -0.6030 ca         1 R22      -0.157000
      3 C3          -0.7840     4.2790    -0.1320 ca         1 R22      -0.042300
      4 C4          -1.2590     4.4580     1.1800 ca         1 R22      -0.137000
      5 C5          -1.4840     3.3510     2.0180 ca         1 R22      -0.042300
      6 C6          -1.2270     2.0540     1.5380 ca         1 R22      -0.157000
      7 O7          -0.4810     0.6140    -0.2850 os         1 R22      -0.247200
      8 C8          -0.5400     5.4810    -1.0310 c3         1 R22      -0.049300
      9 C9          -1.9950     3.5520     3.4360 c3         1 R22      -0.049300
     10 N1          -1.1050    -2.8200     1.8700 ns         1 R22      -0.361100
     11 C11         -2.1620    -2.3900     1.1170 c          1 R22       0.576200
     12 C14         -1.9000    -1.1580     0.3560 cc         1 R22      -0.147400
     13 C18         -0.6730    -0.5320     0.4330 cd         1 R22       0.253100
     14 C19          0.3980    -1.0450     1.2580 cd         1 R22      -0.220200
     15 C20          0.1310    -2.2090     1.9600 cc         1 R22       0.120400
     16 C7           1.0960    -2.9270     2.8700 c3         1 R22      -0.079900
     17 I9          -3.4850    -0.3860    -0.8580 i          1 R22      -0.089800
     18 C10          1.7340    -0.3410     1.3310 c3         1 R22       0.130800
     19 S11          2.9380    -0.9920     0.0920 ss         1 R22      -0.415000
     20 C12          4.3840     0.1080     0.4490 c3         1 R22       0.038300
     21 C13          5.5500    -0.1990    -0.4500 cc         1 R22       0.129300
     22 O14          6.6990    -0.7350     0.0910 os         1 R22      -0.233000
     23 C15          7.5860    -0.9070    -0.9490 cc         1 R22       0.130900
     24 C16          7.0080    -0.4870    -2.1160 cd         1 R22      -0.188000
     25 C17          5.7100    -0.0350    -1.7980 cd         1 R22      -0.161000
     26 H2          -0.1590     2.8260    -1.6130 ha         1 R22       0.130000
     27 H4          -1.4510     5.4630     1.5500 ha         1 R22       0.114000
     28 H6          -1.3990     1.2040     2.1930 ha         1 R22       0.130000
     29 H8'1         0.4830     5.8580    -0.9090 hc         1 R22       0.044867
     30 H8'2        -0.6800     5.2260    -2.0880 hc         1 R22       0.044867
     31 H8'3        -1.2290     6.3020    -0.7970 hc         1 R22       0.044867
     32 H9'1        -1.1620     3.6010     4.1470 hc         1 R22       0.044867
     33 H9'2        -2.5690     4.4830     3.5280 hc         1 R22       0.044867
     34 H9'3        -2.6520     2.7300     3.7440 hc         1 R22       0.044867
     35 HN1         -1.2770    -3.6670     2.3970 hn         1 R22       0.329500
     36 H71          1.2680    -2.3490     3.7850 hc         1 R22       0.067033
     37 H72          0.7330    -3.9190     3.1650 hc         1 R22       0.067033
     38 H73          2.0640    -3.0700     2.3750 hc         1 R22       0.067033
     39 H101         1.6030     0.7350     1.1630 h1         1 R22       0.065700
     40 H102         2.1620    -0.4580     2.3350 h1         1 R22       0.065700
     41 H121         4.0850     1.1540     0.3050 h1         1 R22       0.072700
     42 H122         4.6850    -0.0220     1.4970 h1         1 R22       0.072700
     43 H15          8.5600    -1.3230    -0.7260 h4         1 R22       0.053100
     44 H16          7.4690    -0.5020    -3.0980 ha         1 R22       0.143000
     45 H17          4.9720     0.3660    -2.4850 ha         1 R22       0.143000
     46 O8          -3.2210    -3.0010     1.1020 o          1 R22      -0.528000
@<TRIPOS>BOND
     1     1     2 ar  
     2     1     6 ar  
     3     1     7 1   
     4     2     3 ar  
     5     2    26 1   
     6     3     4 ar  
     7     3     8 1   
     8     4     5 ar  
     9     4    27 1   
    10     5     6 ar  
    11     5     9 1   
    12     6    28 1   
    13     7    13 1   
    14     8    29 1   
    15     8    30 1   
    16     8    31 1   
    17     9    32 1   
    18     9    33 1   
    19     9    34 1   
    20    10    11 1   
    21    10    15 1   
    22    10    35 1   
    23    11    12 1   
    24    11    46 2   
    25    12    13 2   
    26    12    17 1   
    27    13    14 1   
    28    14    15 2   
    29    14    18 1   
    30    15    16 1   
    31    16    36 1   
    32    16    37 1   
    33    16    38 1   
    34    18    19 1   
    35    18    39 1   
    36    18    40 1   
    37    19    20 1   
    38    20    21 1   
    39    20    41 1   
    40    20    42 1   
    41    21    22 1   
    42    21    25 2   
    43    22    23 1   
    44    23    24 2   
    45    23    43 1   
    46    24    25 1   
    47    24    44 1   
    48    25    45 1   
@<TRIPOS>SUBSTRUCTURE
     1 R22         1 TEMP              0 ****  ****    0 ROOT
