@<TRIPOS>MOLECULE
R23
   64    67     1     0     0
SMALL
abcg2


@<TRIPOS>ATOM
      1 C4E         -0.9620     1.9840    -9.4920 c6         1 R23      -0.075400
      2 C5E         -1.9180     0.7980    -9.4810 c6         1 R23      -0.074900
      3 C6E         -1.2670    -0.4120    -8.8310 c6         1 R23       0.165800
      4 N1E         -0.8120    -0.1120    -7.4830 n3         1 R23      -0.716600
      5 C2E          0.1430     0.9840    -7.4760 c6         1 R23       0.165800
      6 C3E         -0.4510     2.2460    -8.0810 c6         1 R23      -0.074900
      7 C1D         -0.2660    -1.2930    -6.8460 c3         1 R23       0.213100
      8 C4C         -0.0590    -1.1140    -5.3650 ca         1 R23      -0.086300
      9 C3C         -1.1050    -0.6840    -4.5500 ca         1 R23      -0.097000
     10 C2C         -0.9300    -0.5640    -3.1810 ca         1 R23      -0.112500
     11 C1C          0.2910    -0.8590    -2.5720 ca         1 R23      -0.072300
     12 C6C          1.3360    -1.2730    -3.3920 ca         1 R23      -0.112500
     13 C5C          1.1610    -1.3980    -4.7660 ca         1 R23      -0.097000
     14 C4B          0.4400    -0.6810    -1.0820 c6         1 R23      -0.020400
     15 C3B          1.4120    -1.6620    -0.4250 c6         1 R23      -0.066900
     16 C2B          1.4540    -1.4670     1.0880 c6         1 R23      -0.092400
     17 C1B          1.8440    -0.0280     1.4210 c6         1 R23       0.129700
     18 C6B          0.8990     0.9790     0.7710 c6         1 R23      -0.092400
     19 C5B          0.8450     0.7590    -0.7380 c6         1 R23      -0.066900
     20 N4           2.0620     0.2130     2.8520 n          1 R23      -0.401800
     21 C1           1.0500     0.1010     3.7220 c          1 R23       0.645100
     22 O3           1.4330     0.3920     4.9950 os         1 R23      -0.374200
     23 C1F          0.4670     0.3310     5.9700 ca         1 R23       0.125100
     24 C6F          0.3950    -0.7910     6.7790 ca         1 R23      -0.101500
     25 C5F         -0.5320    -0.8380     7.8090 ca         1 R23      -0.093500
     26 C4F         -1.3800     0.2400     8.0070 ca         1 R23       0.118000
     27 C3F         -1.3120     1.3650     7.1990 ca         1 R23      -0.093500
     28 C2F         -0.3820     1.4080     6.1720 ca         1 R23      -0.101500
     29 C1A          3.4080     0.6250     3.2110 c3         1 R23       0.100300
     30 O2          -0.0890    -0.2210     3.4650 o          1 R23      -0.522000
     31 CL31        -2.5420     0.1850     9.2920 cl         1 R23      -0.201000
     32 H4E1        -0.1170     1.7640   -10.1520 hc         1 R23       0.038200
     33 H4E2        -1.4520     2.8720    -9.8970 hc         1 R23       0.038200
     34 H5E1        -2.2290     0.5380   -10.4950 hc         1 R23       0.045700
     35 H5E2        -2.8250     1.0610    -8.9270 hc         1 R23       0.045700
     36 H6E1        -0.4320    -0.7590    -9.4690 h1         1 R23       0.030450
     37 H6E2        -1.9820    -1.2370    -8.7780 h1         1 R23       0.030450
     38 H2E1         0.4460     1.1790    -6.4450 h1         1 R23       0.030450
     39 H2E2         1.0610     0.7080    -8.0270 h1         1 R23       0.030450
     40 H3E1         0.3050     3.0340    -8.0810 hc         1 R23       0.045700
     41 H3E2        -1.2750     2.5930    -7.4500 hc         1 R23       0.045700
     42 H1D1         0.6840    -1.6090    -7.3110 h1         1 R23       0.036200
     43 H1D2        -0.9730    -2.1130    -7.0050 h1         1 R23       0.036200
     44 H3C         -2.0640    -0.4430    -4.9920 ha         1 R23       0.117000
     45 H2C         -1.7630    -0.2400    -2.5660 ha         1 R23       0.110500
     46 H6C          2.3050    -1.5100    -2.9690 ha         1 R23       0.110500
     47 H5C          1.9940    -1.7260    -5.3780 ha         1 R23       0.117000
     48 H4B         -0.5480    -0.8560    -0.6370 hc         1 R23       0.060700
     49 H3B1         2.4210    -1.5170    -0.8250 hc         1 R23       0.043950
     50 H3B2         1.1270    -2.6900    -0.6610 hc         1 R23       0.043950
     51 H2B1         2.1810    -2.1530     1.5300 hc         1 R23       0.058200
     52 H2B2         0.4800    -1.7070     1.5170 hc         1 R23       0.058200
     53 H1B          2.8290     0.1400     0.9750 h1         1 R23       0.047700
     54 H6B1        -0.1050     0.8770     1.1840 hc         1 R23       0.058200
     55 H6B2         1.2380     1.9950     0.9900 hc         1 R23       0.058200
     56 H5B1         1.8210     0.9730    -1.1880 hc         1 R23       0.043950
     57 H5B2         0.1360     1.4610    -1.1840 hc         1 R23       0.043950
     58 H6F          1.0650    -1.6250     6.6150 ha         1 R23       0.130000
     59 H5F         -0.5910    -1.7100     8.4450 ha         1 R23       0.132000
     60 H3F         -1.9750     2.2030     7.3640 ha         1 R23       0.132000
     61 H2F         -0.3160     2.2840     5.5400 ha         1 R23       0.130000
     62 H1A1         3.5180     0.7760     4.2780 h1         1 R23       0.044367
     63 H1A2         4.1250    -0.1370     2.9020 h1         1 R23       0.044367
     64 H1A3         3.6640     1.5580     2.7060 h1         1 R23       0.044367
@<TRIPOS>BOND
     1     1     2 1   
     2     1     6 1   
     3     1    32 1   
     4     1    33 1   
     5     2     3 1   
     6     2    34 1   
     7     2    35 1   
     8     3     4 1   
     9     3    36 1   
    10     3    37 1   
    11     4     5 1   
    12     4     7 1   
    13     5     6 1   
    14     5    38 1   
    15     5    39 1   
    16     6    40 1   
    17     6    41 1   
    18     7     8 1   
    19     7    42 1   
    20     7    43 1   
    21     8     9 ar  
    22     8    13 ar  
    23     9    10 ar  
    24     9    44 1   
    25    10    11 ar  
    26    10    45 1   
    27    11    12 ar  
    28    11    14 1   
    29    12    13 ar  
    30    12    46 1   
    31    13    47 1   
    32    14    15 1   
    33    14    19 1   
    34    14    48 1   
    35    15    16 1   
    36    15    49 1   
    37    15    50 1   
    38    16    17 1   
    39    16    51 1   
    40    16    52 1   
    41    17    18 1   
    42    17    20 1   
    43    17    53 1   
    44    18    19 1   
    45    18    54 1   
    46    18    55 1   
    47    19    56 1   
    48    19    57 1   
    49    20    21 1   
    50    20    29 1   
    51    21    22 1   
    52    21    30 2   
    53    22    23 1   
    54    23    24 ar  
    55    23    28 ar  
    56    24    25 ar  
    57    24    58 1   
    58    25    26 ar  
    59    25    59 1   
    60    26    27 ar  
    61    26    31 1   
    62    27    28 ar  
    63    27    60 1   
    64    28    61 1   
    65    29    62 1   
    66    29    63 1   
    67    29    64 1   
@<TRIPOS>SUBSTRUCTURE
     1 R23         1 TEMP              0 ****  ****    0 ROOT
