@<TRIPOS>MOLECULE
R23
   64    67     1     0     0
SMALL
No Charge or Current Charge


@<TRIPOS>ATOM
      1 C4E         -1.0460     2.0830    -9.6190 c6         1 R23      -0.075400
      2 C5E         -1.8070     0.7460    -9.7780 c6         1 R23      -0.074900
      3 C6E         -1.0350    -0.4160    -9.1060 c6         1 R23       0.165800
      4 N1E         -0.7580    -0.1370    -7.6700 n3         1 R23      -0.716600
      5 C2E          0.0120     1.1300    -7.5010 c6         1 R23       0.165800
      6 C3E         -0.7280     2.3380    -8.1280 c6         1 R23      -0.074900
      7 C1D         -0.1220    -1.2920    -6.9920 c3         1 R23       0.213100
      8 C4C          0.0070    -1.1200    -5.4800 ca         1 R23      -0.086300
      9 C3C         -1.1430    -1.1020    -4.6690 ca         1 R23      -0.097000
     10 C2C         -1.0290    -0.9420    -3.2770 ca         1 R23      -0.112500
     11 C1C          0.2360    -0.7970    -2.6750 ca         1 R23      -0.072300
     12 C6C          1.3870    -0.8160    -3.4900 ca         1 R23      -0.112500
     13 C5C          1.2730    -0.9760    -4.8810 ca         1 R23      -0.097000
     14 C4B          0.3490    -0.6210    -1.1530 c6         1 R23      -0.020400
     15 C3B          1.1420    -1.7850    -0.4940 c6         1 R23      -0.066900
     16 C2B          1.2170    -1.6220     1.0460 c6         1 R23      -0.092400
     17 C1B          1.8100    -0.2400     1.4280 c6         1 R23       0.129700
     18 C6B          1.0530     0.9380     0.7610 c6         1 R23      -0.092400
     19 C5B          0.9800     0.7490    -0.7760 c6         1 R23      -0.066900
     20 N4           1.9950    -0.0650     2.8950 n          1 R23      -0.401800
     21 C1           0.9080    -0.0270     3.8010 c          1 R23       0.645100
     22 O3           1.3220     0.1390     5.0970 os         1 R23      -0.374200
     23 C1F          0.4750     0.3180     6.1650 ca         1 R23       0.125100
     24 C6F          0.6990    -0.4210     7.3390 ca         1 R23      -0.101500
     25 C5F         -0.1370    -0.2420     8.4560 ca         1 R23      -0.093500
     26 C4F         -1.1910     0.6860     8.4010 ca         1 R23       0.118000
     27 C3F         -1.4080     1.4400     7.2350 ca         1 R23      -0.093500
     28 C2F         -0.5720     1.2600     6.1170 ca         1 R23      -0.101500
     29 C1A          3.3830     0.0770     3.4030 c3         1 R23       0.100300
     30 O2          -0.2630    -0.1430     3.4700 o          1 R23      -0.522000
     31 Cl31        -2.2350     0.9120     9.7980 cl         1 R23      -0.201000
     32 H4E1        -0.1120     2.0490   -10.1980 hc         1 R23       0.038200
     33 H4E2        -1.6420     2.9100   -10.0270 hc         1 R23       0.038200
     34 H5E1        -1.9600     0.5250   -10.8430 hc         1 R23       0.045700
     35 H5E2        -2.8050     0.8310    -9.3280 hc         1 R23       0.045700
     36 H6E1        -0.0920    -0.5810    -9.6490 h1         1 R23       0.030450
     37 H6E2        -1.6300    -1.3360    -9.2070 h1         1 R23       0.030450
     38 H2E1         0.1760     1.3450    -6.4350 h1         1 R23       0.030450
     39 H2E2         1.0040     1.0360    -7.9670 h1         1 R23       0.030450
     40 H3E1        -0.1160     3.2440    -8.0240 hc         1 R23       0.045700
     41 H3E2        -1.6590     2.5230    -7.5760 hc         1 R23       0.045700
     42 H1D1         0.8730    -1.4760    -7.4210 h1         1 R23       0.036200
     43 H1D2        -0.7160    -2.1980    -7.1740 h1         1 R23       0.036200
     44 H3C         -2.1260    -1.2070    -5.1210 ha         1 R23       0.117000
     45 H2C         -1.9310    -0.9290    -2.6680 ha         1 R23       0.110500
     46 H6C          2.3740    -0.7050    -3.0480 ha         1 R23       0.110500
     47 H5C          2.1710    -0.9860    -5.4950 ha         1 R23       0.117000
     48 H4B         -0.6660    -0.6390    -0.7310 hc         1 R23       0.060700
     49 H3B1         2.1600    -1.8300    -0.9040 hc         1 R23       0.043950
     50 H3B2         0.6670    -2.7440    -0.7390 hc         1 R23       0.043950
     51 H2B1         1.8340    -2.4230     1.4740 hc         1 R23       0.058200
     52 H2B2         0.2120    -1.7400     1.4700 hc         1 R23       0.058200
     53 H1B          2.8120    -0.2260     0.9760 h1         1 R23       0.047700
     54 H6B1         0.0350     1.0190     1.1630 hc         1 R23       0.058200
     55 H6B2         1.5580     1.8850     0.9940 hc         1 R23       0.058200
     56 H5B1         1.9900     0.8310    -1.2010 hc         1 R23       0.043950
     57 H5B2         0.3910     1.5640    -1.2190 hc         1 R23       0.043950
     58 H6F          1.5180    -1.1360     7.3800 ha         1 R23       0.130000
     59 H5F          0.0320    -0.8180     9.3630 ha         1 R23       0.132000
     60 H3F         -2.2180     2.1630     7.1990 ha         1 R23       0.132000
     61 H2F         -0.7350     1.8550     5.2210 ha         1 R23       0.130000
     62 H1A1         3.6030    -0.7310     4.1130 h1         1 R23       0.044367
     63 H1A2         4.1140     0.0290     2.5860 h1         1 R23       0.044367
     64 H1A3         3.4940     1.0430     3.9120 h1         1 R23       0.044367
@<TRIPOS>BOND
     1     1     2 1   
     2     1     6 1   
     3     1    32 1   
     4     1    33 1   
     5     2     3 1   
     6     2    34 1   
     7     2    35 1   
     8     3     4 1   
     9     3    36 1   
    10     3    37 1   
    11     4     5 1   
    12     4     7 1   
    13     5     6 1   
    14     5    38 1   
    15     5    39 1   
    16     6    40 1   
    17     6    41 1   
    18     7     8 1   
    19     7    42 1   
    20     7    43 1   
    21     8     9 ar  
    22     8    13 ar  
    23     9    10 ar  
    24     9    44 1   
    25    10    11 ar  
    26    10    45 1   
    27    11    12 ar  
    28    11    14 1   
    29    12    13 ar  
    30    12    46 1   
    31    13    47 1   
    32    14    15 1   
    33    14    19 1   
    34    14    48 1   
    35    15    16 1   
    36    15    49 1   
    37    15    50 1   
    38    16    17 1   
    39    16    51 1   
    40    16    52 1   
    41    17    18 1   
    42    17    20 1   
    43    17    53 1   
    44    18    19 1   
    45    18    54 1   
    46    18    55 1   
    47    19    56 1   
    48    19    57 1   
    49    20    21 1   
    50    20    29 1   
    51    21    22 1   
    52    21    30 2   
    53    22    23 1   
    54    23    24 ar  
    55    23    28 ar  
    56    24    25 ar  
    57    24    58 1   
    58    25    26 ar  
    59    25    59 1   
    60    26    27 ar  
    61    26    31 1   
    62    27    28 ar  
    63    27    60 1   
    64    28    61 1   
    65    29    62 1   
    66    29    63 1   
    67    29    64 1   
@<TRIPOS>SUBSTRUCTURE
     1 R23         1 TEMP              0 ****  ****    0 ROOT
