@<TRIPOS>MOLECULE
R24
   69    73     1     0     0
SMALL
abcg2


@<TRIPOS>ATOM
      1 C1          -7.5670    -0.6720    -0.6040 ca         1 R24      -0.194200
      2 C2          -7.9420     0.6190    -0.1900 ca         1 R24      -0.052000
      3 C3          -7.0220     1.3930     0.4520 ca         1 R24      -0.097000
      4 C4          -6.3150    -1.1750    -0.3650 ca         1 R24      -0.009000
      5 C5          -5.3670    -0.3960     0.3190 ca         1 R24      -0.153000
      6 C6          -5.7130     0.9230     0.7150 ca         1 R24       0.328000
      7 C8          -4.0430    -0.8680     0.6180 ca         1 R24       0.387000
      8 C10         -3.1840     0.0300     1.2300 ca         1 R24      -0.251000
      9 C11         -3.6450     1.3080     1.5520 ca         1 R24       0.412900
     10 C12         -2.4470    -2.7460     0.3740 ca         1 R24       0.314000
     11 C13         -1.3090    -2.0640    -0.0420 ca         1 R24      -0.149000
     12 C14         -0.0650    -2.6800     0.0430 ca         1 R24       0.009000
     13 C15          0.0280    -4.0050     0.4670 ca         1 R24      -0.178000
     14 N38         -8.5300    -1.4920    -1.3150 no         1 R24       0.697200
     15 O40         -9.6300    -1.0290    -1.5080 o          1 R24      -0.403500
     16 O39         -8.1910    -2.5950    -1.6770 o          1 R24      -0.403500
     17 N7          -4.8550     1.7630     1.3270 nb         1 R24      -0.697000
     18 N9          -3.7110    -2.1510     0.3100 nu         1 R24      -0.977000
     19 C17         -2.3580    -4.0710     0.7970 ca         1 R24      -0.171000
     20 C16         -1.1210    -4.6930     0.8200 ca         1 R24      -0.056000
     21 N18          1.1070    -2.0230    -0.3440 ns         1 R24      -0.164000
     22 C19          1.3860    -0.7070    -0.0900 c          1 R24       0.671100
     23 O20          0.6210     0.0660     0.4510 o          1 R24      -0.591100
     24 N21          2.6370    -0.3450    -0.5210 ns         1 R24      -0.418100
     25 C22          3.1800     0.9110    -0.3410 cc         1 R24       0.016600
     26 C26          2.6220     2.1630    -0.2310 cd         1 R24      -0.220000
     27 C25          3.7290     3.0380    -0.1540 cd         1 R24       0.279300
     28 C27          3.6910     4.5350     0.0060 c3         1 R24      -0.073300
     29 C29          3.2030     4.8650     1.4230 c3         1 R24      -0.080433
     30 C30          5.0780     5.1420    -0.2060 c3         1 R24      -0.080433
     31 C28          2.7190     5.1350    -1.0150 c3         1 R24      -0.080433
     32 N24          4.8630     2.3750    -0.2130 nc         1 R24      -0.505800
     33 N23          4.5270     1.0770    -0.3070 na         1 R24       0.182000
     34 C31          5.5320     0.0890    -0.3810 ca         1 R24       0.004800
     35 C32          6.5730     0.2350    -1.2920 ca         1 R24      -0.105500
     36 C33          7.5680    -0.7260    -1.3550 ca         1 R24      -0.105000
     37 C34          7.5430    -1.8510    -0.5310 ca         1 R24      -0.070300
     38 C37          8.6360    -2.8770    -0.5990 c3         1 R24      -0.049800
     39 C35          6.4910    -1.9780     0.3710 ca         1 R24      -0.105000
     40 C36          5.4970    -1.0140     0.4610 ca         1 R24      -0.105500
     41 H2          -8.9350     0.9990    -0.3810 ha         1 R24       0.153000
     42 H3          -7.2760     2.3940     0.7730 ha         1 R24       0.144000
     43 H4          -6.0700    -2.1620    -0.7280 ha         1 R24       0.141000
     44 H10         -2.1710    -0.2340     1.4920 ha         1 R24       0.152000
     45 H11         -2.9590     1.9880     2.0460 h4         1 R24       0.027100
     46 H13         -1.3940    -1.0660    -0.4450 ha         1 R24       0.150000
     47 H15          0.9950    -4.4900     0.5270 ha         1 R24       0.116000
     48 HN9         -4.4720    -2.8030     0.2060 hn         1 R24       0.500000
     49 H17         -3.2480    -4.6040     1.1050 ha         1 R24       0.121000
     50 H16         -1.0470    -5.7240     1.1410 ha         1 R24       0.120000
     51 HN18         1.8790    -2.6280    -0.5840 hn         1 R24       0.151000
     52 HN21         3.2000    -1.0220    -1.0150 hn         1 R24       0.328500
     53 H26          1.5760     2.4110    -0.2250 ha         1 R24       0.165000
     54 H29          3.8840     4.4670     2.1770 hc         1 R24       0.037256
     55 H29A         3.1420     5.9470     1.5610 hc         1 R24       0.037256
     56 H29B         2.2130     4.4490     1.6120 hc         1 R24       0.037256
     57 H30          5.4560     4.9380    -1.2090 hc         1 R24       0.037256
     58 H30A         5.0280     6.2250    -0.0810 hc         1 R24       0.037256
     59 H30B         5.8040     4.7560     0.5090 hc         1 R24       0.037256
     60 H28          1.6980     4.7790    -0.8640 hc         1 R24       0.037256
     61 H28A         2.7020     6.2230    -0.9240 hc         1 R24       0.037256
     62 H28B         3.0130     4.8860    -2.0370 hc         1 R24       0.037256
     63 H32          6.5990     1.0950    -1.9480 ha         1 R24       0.132000
     64 H33          8.3730    -0.6030    -2.0700 ha         1 R24       0.118000
     65 H37          9.5180    -2.5420    -0.0470 hc         1 R24       0.046367
     66 H37A         8.3220    -3.8260    -0.1680 hc         1 R24       0.046367
     67 H37B         8.9510    -3.0570    -1.6260 hc         1 R24       0.046367
     68 H35          6.4500    -2.8370     1.0300 ha         1 R24       0.118000
     69 H36          4.7090    -1.1220     1.1960 ha         1 R24       0.132000
@<TRIPOS>BOND
     1     1     2 ar  
     2     1     4 ar  
     3     1    14 1   
     4     2     3 ar  
     5     2    41 1   
     6     3     6 ar  
     7     3    42 1   
     8     4     5 ar  
     9     4    43 1   
    10     5     6 ar  
    11     5     7 ar  
    12     6    17 ar  
    13     7     8 ar  
    14     7    18 1   
    15     8     9 ar  
    16     8    44 1   
    17     9    17 ar  
    18     9    45 1   
    19    10    11 ar  
    20    10    18 1   
    21    10    19 ar  
    22    11    12 ar  
    23    11    46 1   
    24    12    13 ar  
    25    12    21 1   
    26    13    20 ar  
    27    13    47 1   
    28    14    15 1   
    29    14    16 1   
    30    18    48 1   
    31    19    20 ar  
    32    19    49 1   
    33    20    50 1   
    34    21    22 1   
    35    21    51 1   
    36    22    23 2   
    37    22    24 1   
    38    24    25 1   
    39    24    52 1   
    40    25    26 2   
    41    25    33 1   
    42    26    27 1   
    43    26    53 1   
    44    27    28 1   
    45    27    32 2   
    46    28    29 1   
    47    28    30 1   
    48    28    31 1   
    49    29    54 1   
    50    29    55 1   
    51    29    56 1   
    52    30    57 1   
    53    30    58 1   
    54    30    59 1   
    55    31    60 1   
    56    31    61 1   
    57    31    62 1   
    58    32    33 1   
    59    33    34 1   
    60    34    35 ar  
    61    34    40 ar  
    62    35    36 ar  
    63    35    63 1   
    64    36    37 ar  
    65    36    64 1   
    66    37    38 1   
    67    37    39 ar  
    68    38    65 1   
    69    38    66 1   
    70    38    67 1   
    71    39    40 ar  
    72    39    68 1   
    73    40    69 1   
@<TRIPOS>SUBSTRUCTURE
     1 R24         1 TEMP              0 ****  ****    0 ROOT
