@<TRIPOS>MOLECULE
R24
   69    73     1     0     0
SMALL
No Charge or Current Charge


@<TRIPOS>ATOM
      1 C1          -7.3720    -0.6220    -1.1350 ca         1 R24      -0.194200
      2 C2          -7.7730     0.6830    -0.7750 ca         1 R24      -0.052000
      3 C3          -7.0190     1.4200     0.1510 ca         1 R24      -0.097000
      4 C4          -6.2100    -1.1690    -0.5460 ca         1 R24      -0.009000
      5 C5          -5.4570    -0.4250     0.3960 ca         1 R24      -0.153000
      6 C6          -5.8620     0.8860     0.7420 ca         1 R24       0.328000
      7 C8          -4.2900    -0.9440     0.9980 ca         1 R24       0.387000
      8 C10         -3.5960    -0.1520     1.9110 ca         1 R24      -0.251000
      9 C11         -4.0630     1.1300     2.1920 ca         1 R24       0.412900
     10 C12         -2.5720    -2.8260     0.7100 ca         1 R24       0.314000
     11 C13         -1.4140    -2.0540     0.5110 ca         1 R24      -0.149000
     12 C14         -0.1410    -2.6620     0.4740 ca         1 R24       0.009000
     13 C15         -0.0500    -4.0590     0.6120 ca         1 R24      -0.178000
     14 N38         -8.1670    -1.4140    -2.1300 no         1 R24       0.697200
     15 O40         -9.1710    -0.8880    -2.6290 o          1 R24      -0.403500
     16 O39         -7.7870    -2.5600    -2.4060 o          1 R24      -0.403500
     17 N7          -5.1720     1.6430     1.6230 nb         1 R24      -0.697000
     18 N9          -3.8400    -2.2430     0.7410 nu         1 R24      -0.977000
     19 C17         -2.4640    -4.2180     0.8400 ca         1 R24      -0.171000
     20 C16         -1.2050    -4.8370     0.7940 ca         1 R24      -0.056000
     21 N18          1.0670    -1.9380     0.2800 ns         1 R24      -0.164000
     22 C19          1.3450    -0.5800     0.2960 c          1 R24       0.671100
     23 O20          0.5230     0.2920     0.5380 o          1 R24      -0.591100
     24 N21          2.6730    -0.3190     0.0180 ns         1 R24      -0.418100
     25 C22          3.3280     0.9100    -0.0550 cc         1 R24       0.016600
     26 C26          2.8250     2.1700     0.0910 cd         1 R24      -0.220000
     27 C25          3.8930     3.0890    -0.0960 cd         1 R24       0.279300
     28 C27          3.7750     4.6120    -0.0190 c3         1 R24      -0.073300
     29 C29          3.2680     5.0100     1.3920 c3         1 R24      -0.080433
     30 C30          5.1350     5.3260    -0.2750 c3         1 R24      -0.080433
     31 C28          2.7570     5.0950    -1.0860 c3         1 R24      -0.080433
     32 N24          5.0430     2.4790    -0.3510 nc         1 R24      -0.505800
     33 N23          4.6680     1.1570    -0.3270 na         1 R24       0.182000
     34 C31          5.6230     0.1550    -0.5100 ca         1 R24       0.004800
     35 C32          6.3740     0.0970    -1.7010 ca         1 R24      -0.105500
     36 C33          7.3300    -0.9160    -1.8890 ca         1 R24      -0.105000
     37 C34          7.5470    -1.8820    -0.8890 ca         1 R24      -0.070300
     38 C37          8.5850    -2.9760    -1.0920 c3         1 R24      -0.049800
     39 C35          6.8040    -1.8220     0.3040 ca         1 R24      -0.105000
     40 C36          5.8470    -0.8090     0.4940 ca         1 R24      -0.105500
     41 H2          -8.6630     1.1360    -1.2090 ha         1 R24       0.153000
     42 H3          -7.3340     2.4250     0.4160 ha         1 R24       0.144000
     43 H4          -5.8900    -2.1690    -0.8310 ha         1 R24       0.141000
     44 H10         -2.7140    -0.5220     2.4200 ha         1 R24       0.152000
     45 H11         -3.5410     1.7690     2.9040 h4         1 R24       0.027100
     46 H13         -1.5230    -0.9880     0.3620 ha         1 R24       0.150000
     47 H15          0.9210    -4.5480     0.5790 ha         1 R24       0.116000
     48 HN9         -4.5940    -2.9070     0.5710 hn         1 R24       0.500000
     49 H17         -3.3540    -4.8240     0.9820 ha         1 R24       0.121000
     50 H16         -1.1240    -5.9170     0.8990 ha         1 R24       0.120000
     51 HN18         1.8660    -2.5290     0.0940 hn         1 R24       0.151000
     52 HN21         3.2290    -1.1460    -0.1570 hn         1 R24       0.328500
     53 H26          1.7990     2.4380     0.3070 ha         1 R24       0.165000
     54 H29          3.9620     4.6600     2.1660 hc         1 R24       0.037256
     55 H29A         3.1770     6.0990     1.4860 hc         1 R24       0.037256
     56 H29B         2.2840     4.5720     1.5990 hc         1 R24       0.037256
     57 H30          5.5260     5.0850    -1.2720 hc         1 R24       0.037256
     58 H30A         5.0240     6.4150    -0.2150 hc         1 R24       0.037256
     59 H30B         5.8840     5.0260     0.4680 hc         1 R24       0.037256
     60 H28          1.7660     4.6590    -0.9140 hc         1 R24       0.037256
     61 H28A         2.6510     6.1870    -1.0630 hc         1 R24       0.037256
     62 H28B         3.0830     4.8060    -2.0920 hc         1 R24       0.037256
     63 H32          6.2120     0.8380    -2.4810 ha         1 R24       0.132000
     64 H33          7.9020    -0.9490    -2.8140 ha         1 R24       0.118000
     65 H37          9.5660    -2.6570    -0.7220 hc         1 R24       0.046367
     66 H37A         8.3080    -3.8940    -0.5590 hc         1 R24       0.046367
     67 H37B         8.6940    -3.2330    -2.1530 hc         1 R24       0.046367
     68 H35          6.9690    -2.5580     1.0880 ha         1 R24       0.118000
     69 H36          5.2860    -0.7690     1.4250 ha         1 R24       0.132000
@<TRIPOS>BOND
     1     1     2 ar  
     2     1     4 ar  
     3     1    14 1   
     4     2     3 ar  
     5     2    41 1   
     6     3     6 ar  
     7     3    42 1   
     8     4     5 ar  
     9     4    43 1   
    10     5     6 ar  
    11     5     7 ar  
    12     6    17 ar  
    13     7     8 ar  
    14     7    18 1   
    15     8     9 ar  
    16     8    44 1   
    17     9    17 ar  
    18     9    45 1   
    19    10    11 ar  
    20    10    18 1   
    21    10    19 ar  
    22    11    12 ar  
    23    11    46 1   
    24    12    13 ar  
    25    12    21 1   
    26    13    20 ar  
    27    13    47 1   
    28    14    15 1   
    29    14    16 1   
    30    18    48 1   
    31    19    20 ar  
    32    19    49 1   
    33    20    50 1   
    34    21    22 1   
    35    21    51 1   
    36    22    23 2   
    37    22    24 1   
    38    24    25 1   
    39    24    52 1   
    40    25    26 2   
    41    25    33 1   
    42    26    27 1   
    43    26    53 1   
    44    27    28 1   
    45    27    32 2   
    46    28    29 1   
    47    28    30 1   
    48    28    31 1   
    49    29    54 1   
    50    29    55 1   
    51    29    56 1   
    52    30    57 1   
    53    30    58 1   
    54    30    59 1   
    55    31    60 1   
    56    31    61 1   
    57    31    62 1   
    58    32    33 1   
    59    33    34 1   
    60    34    35 ar  
    61    34    40 ar  
    62    35    36 ar  
    63    35    63 1   
    64    36    37 ar  
    65    36    64 1   
    66    37    38 1   
    67    37    39 ar  
    68    38    65 1   
    69    38    66 1   
    70    38    67 1   
    71    39    40 ar  
    72    39    68 1   
    73    40    69 1   
@<TRIPOS>SUBSTRUCTURE
     1 R24         1 TEMP              0 ****  ****    0 ROOT
