@<TRIPOS>MOLECULE
R25
   72    76     1     0     0
SMALL
No Charge or Current Charge


@<TRIPOS>ATOM
      1 C01        331.8110   280.0050   125.3730 c3         1 R25       0.148900
      2 C03        332.8090   282.1390   126.1540 ca         1 R25       0.174100
      3 C04        331.8240   282.2830   127.1570 ca         1 R25      -0.262000
      4 C05        331.8870   283.3390   128.0780 ca         1 R25       0.349000
      5 C07        330.4780   284.7900   129.5910 c6         1 R25       0.201300
      6 C08        329.0010   284.7750   130.0490 c6         1 R25      -0.112400
      7 C09        328.7540   283.6470   131.0740 c6         1 R25       0.166500
      8 C11        329.1840   282.2880   130.4800 c6         1 R25      -0.112400
      9 C12        330.6600   282.3340   130.0210 c6         1 R25       0.201300
     10 C13        332.9500   284.2550   128.0040 ca         1 R25      -0.194000
     11 C14        333.9360   284.1240   127.0120 ca         1 R25      -0.032000
     12 C15        333.8740   283.0840   126.0670 ca         1 R25       0.207000
     13 C17        334.8490   282.8540   123.7130 ca         1 R25       0.413900
     14 C19        335.9950   282.3630   121.8060 ca         1 R25       0.192900
     15 C20        334.8250   282.5550   121.0560 ca         1 R25      -0.326600
     16 C21        334.8660   282.3000   119.5920 c          1 R25       0.626700
     17 C23        333.6890   281.2640   117.7410 c3         1 R25       0.175300
     18 C24        334.6100   280.0600   117.4400 c3         1 R25      -0.102600
     19 C25        332.2050   280.9540   117.4720 c3         1 R25      -0.102600
     20 C27        333.6600   282.9570   121.7490 ca         1 R25       0.328800
     21 C28        332.4010   283.3050   121.0760 cc         1 R25      -0.235000
     22 C29        332.3760   284.1040   119.9340 cd         1 R25      -0.098100
     23 C32        330.2560   283.8670   120.6540 ca         1 R25      -0.062200
     24 C33        331.0480   283.2030   121.5520 ca         1 R25      -0.048800
     25 C34        330.5150   282.5650   122.6810 ca         1 R25      -0.052000
     26 C35        329.1200   282.6280   122.8810 ca         1 R25      -0.141000
     27 C36        328.2970   283.3150   121.9580 ca         1 R25      -0.093000
     28 C37        328.8640   283.9440   120.8290 ca         1 R25      -0.131000
     29 N06        330.8880   283.4560   129.0660 nh         1 R25      -0.794400
     30 N16        334.8890   283.0060   125.0900 nu         1 R25      -0.925900
     31 N18        336.0130   282.5180   123.1410 nb         1 R25      -0.257000
     32 N30        331.0300   284.4100   119.6360 na         1 R25      -0.093700
     33 N38        333.6810   283.0840   123.0910 nb         1 R25      -0.252000
     34 O02        332.7810   281.0640   125.2750 os         1 R25      -0.342100
     35 O22        333.7910   281.5820   119.1390 os         1 R25      -0.446100
     36 O26        335.7820   282.6960   118.8860 o          1 R25      -0.509000
     37 H1         331.9880   279.2560   124.5910 h1         1 R25       0.043367
     38 H2         331.8780   279.5030   126.3460 h1         1 R25       0.043367
     39 H3         330.7920   280.3930   125.2450 h1         1 R25       0.043367
     40 H4         330.9970   281.5880   127.2330 ha         1 R25       0.118000
     41 H5         331.1200   285.0770   130.4380 h1         1 R25       0.055450
     42 H6         330.5940   285.5610   128.8140 h1         1 R25       0.055450
     43 H7         328.7440   285.7500   130.4840 hc         1 R25       0.057700
     44 H8         328.3520   284.6380   129.1730 hc         1 R25       0.057700
     45 H9         329.3480   283.8480   131.9780 h1         1 R25       0.011700
     46 H10        328.5460   282.0310   129.6230 hc         1 R25       0.057700
     47 H11        329.0570   281.4890   131.2220 hc         1 R25       0.057700
     48 H12        330.9170   281.3670   129.5630 h1         1 R25       0.055450
     49 H13        331.3100   282.4550   130.9020 h1         1 R25       0.055450
     50 H14        333.0250   285.0670   128.7200 ha         1 R25       0.119000
     51 H15        334.7490   284.8450   126.9690 ha         1 R25       0.123000
     52 H16        336.9310   282.0610   121.3380 h4         1 R25       0.033100
     53 H17        333.9800   282.1200   117.1170 h1         1 R25       0.057700
     54 H18        335.6630   280.3190   117.5960 hc         1 R25       0.047033
     55 H19        334.3620   279.2090   118.0850 hc         1 R25       0.047033
     56 H20        334.4940   279.7440   116.3960 hc         1 R25       0.047033
     57 H21        331.5830   281.8240   117.7130 hc         1 R25       0.047033
     58 H22        332.0500   280.7050   116.4160 hc         1 R25       0.047033
     59 H23        331.8660   280.1060   118.0800 hc         1 R25       0.047033
     60 H24        333.1940   284.4900   119.3320 h4         1 R25       0.215000
     61 H25        330.0090   286.1160   118.9350 h1         1 R25       0.050367
     62 H26        331.3160   285.5240   117.8670 h1         1 R25       0.050367
     63 H27        329.7690   284.6320   117.9620 h1         1 R25       0.050367
     64 H28        331.1550   282.0360   123.3790 ha         1 R25       0.136000
     65 H29        328.6760   282.1440   123.7480 ha         1 R25       0.120000
     66 H30        327.2220   283.3590   122.1190 ha         1 R25       0.112000
     67 H31        328.2340   284.4740   120.1180 ha         1 R25       0.109000
     68 H32        327.2290   282.9150   132.2270 hn         1 R25       0.396000
     69 H33        327.1130   284.4980   131.9520 hn         1 R25       0.396000
     70 H35        335.8340   283.1760   125.4370 hn         1 R25       0.515000
     71 N10        327.3390   283.6140   131.4820 n8         1 R25      -1.004200
     72 C31        330.4990   285.2210   118.5320 c3         1 R25       0.065900
@<TRIPOS>BOND
     1     1    34 1   
     2     1    37 1   
     3     1    38 1   
     4     1    39 1   
     5     2     3 ar  
     6     2    12 ar  
     7     2    34 1   
     8     3     4 ar  
     9     3    40 1   
    10     4    10 ar  
    11     4    29 1   
    12     5     6 1   
    13     5    29 1   
    14     5    41 1   
    15     5    42 1   
    16     6     7 1   
    17     6    43 1   
    18     6    44 1   
    19     7     8 1   
    20     7    45 1   
    21     7    71 1   
    22     8     9 1   
    23     8    46 1   
    24     8    47 1   
    25     9    29 1   
    26     9    48 1   
    27     9    49 1   
    28    10    11 ar  
    29    10    50 1   
    30    11    12 ar  
    31    11    51 1   
    32    12    30 1   
    33    13    30 1   
    34    13    31 ar  
    35    13    33 ar  
    36    14    15 ar  
    37    14    31 ar  
    38    14    52 1   
    39    15    16 1   
    40    15    20 ar  
    41    16    35 1   
    42    16    36 2   
    43    17    18 1   
    44    17    19 1   
    45    17    35 1   
    46    17    53 1   
    47    18    54 1   
    48    18    55 1   
    49    18    56 1   
    50    19    57 1   
    51    19    58 1   
    52    19    59 1   
    53    20    21 1   
    54    20    33 ar  
    55    21    22 2   
    56    21    24 1   
    57    22    32 1   
    58    22    60 1   
    59    23    24 ar  
    60    23    28 ar  
    61    23    32 1   
    62    24    25 ar  
    63    25    26 ar  
    64    25    64 1   
    65    26    27 ar  
    66    26    65 1   
    67    27    28 ar  
    68    27    66 1   
    69    28    67 1   
    70    30    70 1   
    71    32    72 1   
    72    61    72 1   
    73    62    72 1   
    74    63    72 1   
    75    68    71 1   
    76    69    71 1   
@<TRIPOS>SUBSTRUCTURE
     1 R25         1 TEMP              0 ****  ****    0 ROOT
