@<TRIPOS>MOLECULE
R25
   72    76     1     0     0
SMALL
abcg2


@<TRIPOS>ATOM
      1 C01        332.8020   279.8130   125.7480 c3         1 R25       0.148900
      2 C03        333.5410   281.9920   126.4150 ca         1 R25       0.174100
      3 C04        332.5310   282.0920   127.3670 ca         1 R25      -0.262000
      4 C05        332.3600   283.2620   128.1310 ca         1 R25       0.349000
      5 C07        330.6630   284.6040   129.3170 c6         1 R25       0.201300
      6 C08        329.4420   284.6750   128.3960 c6         1 R25      -0.112400
      7 C09        328.5130   283.4830   128.6270 c6         1 R25       0.166500
      8 C11        329.2910   282.1730   128.5030 c6         1 R25      -0.112400
      9 C12        330.5240   282.2030   129.4080 c6         1 R25       0.201300
     10 C13        333.2350   284.3360   127.8870 ca         1 R25      -0.194000
     11 C14        334.2300   284.2270   126.9290 ca         1 R25      -0.032000
     12 C15        334.4080   283.0700   126.1830 ca         1 R25       0.207000
     13 C17        335.1860   282.9320   123.8700 ca         1 R25       0.413900
     14 C19        335.9480   282.5090   121.7850 ca         1 R25       0.192900
     15 C20        334.6680   282.6500   121.2510 ca         1 R25      -0.326600
     16 C21        334.4930   282.2820   119.8290 c          1 R25       0.626700
     17 C23        333.0330   281.2170   118.2370 c3         1 R25       0.175300
     18 C24        333.7230   279.9110   117.8900 c3         1 R25      -0.102600
     19 C25        331.5210   281.1290   118.1890 c3         1 R25      -0.102600
     20 C27        333.6630   283.0900   122.1490 ca         1 R25       0.328800
     21 C28        332.3280   283.5030   121.7630 cc         1 R25      -0.235000
     22 C29        331.9330   284.0130   120.5400 cd         1 R25      -0.098100
     23 C32        330.1010   284.0590   121.8180 ca         1 R25      -0.062200
     24 C33        331.1560   283.5370   122.6100 ca         1 R25      -0.048800
     25 C34        330.8820   283.1610   123.9310 ca         1 R25      -0.052000
     26 C35        329.5930   283.3170   124.4180 ca         1 R25      -0.141000
     27 C36        328.5650   283.8410   123.6160 ca         1 R25      -0.093000
     28 C37        328.8040   284.2170   122.3020 ca         1 R25      -0.131000
     29 N06        331.3910   283.3460   129.1280 nh         1 R25      -0.794400
     30 N16        335.4310   282.9810   125.2000 nu         1 R25      -0.925900
     31 N18        336.2380   282.6450   123.0700 nb         1 R25      -0.257000
     32 N30        330.6150   284.3470   120.5650 na         1 R25      -0.093700
     33 N38        333.9480   283.2040   123.4510 nb         1 R25      -0.252000
     34 O02        333.7350   280.8880   125.6490 os         1 R25      -0.342100
     35 O22        333.3700   281.5920   119.6090 os         1 R25      -0.446100
     36 O26        335.3150   282.5290   118.9650 o          1 R25      -0.509000
     37 H1         333.1260   279.0730   125.0200 h1         1 R25       0.043367
     38 H2         332.8100   279.3720   126.7470 h1         1 R25       0.043367
     39 H3         331.7920   280.1500   125.5050 h1         1 R25       0.043367
     40 H4         331.8610   281.2610   127.4980 ha         1 R25       0.118000
     41 H5         330.3440   284.6500   130.3620 h1         1 R25       0.055450
     42 H6         331.3200   285.4510   129.1450 h1         1 R25       0.055450
     43 H7         328.9000   285.6090   128.5720 hc         1 R25       0.057700
     44 H8         329.7720   284.6770   127.3530 hc         1 R25       0.057700
     45 H9         328.1470   283.5490   129.6640 h1         1 R25       0.011700
     46 H10        329.5940   282.0300   127.4630 hc         1 R25       0.057700
     47 H11        328.6510   281.3290   128.7770 hc         1 R25       0.057700
     48 H12        331.0940   281.2790   129.3390 h1         1 R25       0.055450
     49 H13        330.2030   282.2970   130.4500 h1         1 R25       0.055450
     50 H14        333.1580   285.2500   128.4570 ha         1 R25       0.119000
     51 H15        334.8950   285.0620   126.7500 ha         1 R25       0.123000
     52 H16        336.7670   282.2410   121.1260 h4         1 R25       0.033100
     53 H17        333.3900   282.0170   117.5880 h1         1 R25       0.057700
     54 H18        334.8060   280.0100   117.9620 hc         1 R25       0.047033
     55 H19        333.3930   279.1180   118.5640 hc         1 R25       0.047033
     56 H20        333.4690   279.6230   116.8680 hc         1 R25       0.047033
     57 H21        331.0660   282.0810   118.4640 hc         1 R25       0.047033
     58 H22        331.2020   280.8730   117.1780 hc         1 R25       0.047033
     59 H23        331.1590   280.3570   118.8710 hc         1 R25       0.047033
     60 H24        332.5100   284.1900   119.6480 h4         1 R25       0.215000
     61 H25        329.4530   285.8960   119.7600 h1         1 R25       0.050367
     62 H26        330.5330   285.0650   118.6210 h1         1 R25       0.050367
     63 H27        329.0470   284.2690   119.1750 h1         1 R25       0.050367
     64 H28        331.6660   282.7720   124.5610 ha         1 R25       0.136000
     65 H29        329.3730   283.0390   125.4390 ha         1 R25       0.120000
     66 H30        327.5720   283.9550   124.0320 ha         1 R25       0.112000
     67 H31        328.0150   284.6170   121.6800 ha         1 R25       0.109000
     68 H32        326.7670   282.7410   127.8590 hn         1 R25       0.396000
     69 H33        326.8660   284.3610   127.7890 hn         1 R25       0.396000
     70 H35        336.3690   282.7410   125.4840 hn         1 R25       0.515000
     71 N10        327.4040   283.5090   127.6650 n8         1 R25      -1.004200
     72 C31        329.8650   284.9290   119.4680 c3         1 R25       0.065900
@<TRIPOS>BOND
     1     1    34 1   
     2     1    37 1   
     3     1    38 1   
     4     1    39 1   
     5     2     3 ar  
     6     2    12 ar  
     7     2    34 1   
     8     3     4 ar  
     9     3    40 1   
    10     4    10 ar  
    11     4    29 1   
    12     5     6 1   
    13     5    29 1   
    14     5    41 1   
    15     5    42 1   
    16     6     7 1   
    17     6    43 1   
    18     6    44 1   
    19     7     8 1   
    20     7    45 1   
    21     7    71 1   
    22     8     9 1   
    23     8    46 1   
    24     8    47 1   
    25     9    29 1   
    26     9    48 1   
    27     9    49 1   
    28    10    11 ar  
    29    10    50 1   
    30    11    12 ar  
    31    11    51 1   
    32    12    30 1   
    33    13    30 1   
    34    13    31 ar  
    35    13    33 ar  
    36    14    15 ar  
    37    14    31 ar  
    38    14    52 1   
    39    15    16 1   
    40    15    20 ar  
    41    16    35 1   
    42    16    36 2   
    43    17    18 1   
    44    17    19 1   
    45    17    35 1   
    46    17    53 1   
    47    18    54 1   
    48    18    55 1   
    49    18    56 1   
    50    19    57 1   
    51    19    58 1   
    52    19    59 1   
    53    20    21 1   
    54    20    33 ar  
    55    21    22 2   
    56    21    24 1   
    57    22    32 1   
    58    22    60 1   
    59    23    24 ar  
    60    23    28 ar  
    61    23    32 1   
    62    24    25 ar  
    63    25    26 ar  
    64    25    64 1   
    65    26    27 ar  
    66    26    65 1   
    67    27    28 ar  
    68    27    66 1   
    69    28    67 1   
    70    30    70 1   
    71    32    72 1   
    72    61    72 1   
    73    62    72 1   
    74    63    72 1   
    75    68    71 1   
    76    69    71 1   
@<TRIPOS>SUBSTRUCTURE
     1 R25         1 TEMP              0 ****  ****    0 ROOT
