@<TRIPOS>MOLECULE
R26
   37    39     1     0     0
SMALL
bcc


@<TRIPOS>ATOM
      1 N37         -8.7490    -1.2200    -0.2990 n1         1 R26      -0.395800
      2 CAW         -7.6030    -1.1850    -0.1870 cg         1 R26       0.250800
      3 CAV         -6.1840    -1.1400    -0.0480 ca         1 R26      -0.033000
      4 CAU         -5.3980    -0.6480    -1.0910 ca         1 R26      -0.093500
      5 CAT         -4.0250    -0.6040    -0.9490 ca         1 R26      -0.116500
      6 CAY         -5.5870    -1.5840     1.1290 ca         1 R26      -0.093500
      7 CAZ         -4.2090    -1.5300     1.2570 ca         1 R26      -0.116500
      8 CAS         -3.4140    -1.0430     0.2260 ca         1 R26      -0.059300
      9 CAR         -1.9190    -0.9910     0.3680 c3         1 R26       0.278100
     10 NAQ         -1.4490     0.3490     0.1390 nu         1 R26      -0.879900
     11 CAP         -0.1550     0.6600     0.0330 ca         1 R26       0.599900
     12 CAC          0.2300     2.0610    -0.1480 ca         1 R26       0.242500
     13 CAB         -0.7960     3.2060    -0.1970 c          1 R26       0.834100
     14 OAA         -0.3580     4.3220    -0.4780 o          1 R26      -0.784300
     15 OBA         -1.9850     2.8990     0.0600 o          1 R26      -0.784300
     16 NAD          1.4760     2.3800    -0.2630 nb         1 R26      -0.602000
     17 CAE          2.4210     1.4050    -0.2060 ca         1 R26       0.249300
     18 CAF          3.7800     1.7420    -0.3210 ca         1 R26      -0.132300
     19 CAG          4.7450     0.7720    -0.2540 ca         1 R26      -0.146000
     20 NAO          0.7470    -0.2970     0.0850 nb         1 R26      -0.813000
     21 CAN          2.0440     0.0600    -0.0270 ca         1 R26       0.344300
     22 CAM          3.0470    -0.9250     0.0440 ca         1 R26      -0.140300
     23 CAH          4.3700    -0.5720    -0.0660 ca         1 R26      -0.196300
     24 CAI          5.4530    -1.6060    -0.0080 c3         1 R26       0.718200
     25 FAL          6.3710    -1.2970     0.9170 f          1 R26      -0.244633
     26 FAJ          4.9900    -2.8220     0.2860 f          1 R26      -0.244633
     27 FAK          6.1000    -1.6990    -1.1770 f          1 R26      -0.244633
     28 H1          -5.8620    -0.3030    -2.0040 ha         1 R26       0.137000
     29 H2          -3.4240    -0.2230    -1.7640 ha         1 R26       0.145000
     30 H3          -6.1940    -1.9630     1.9390 ha         1 R26       0.137000
     31 H4          -3.7520    -1.8700     2.1770 ha         1 R26       0.145000
     32 H5          -1.6240    -1.3550     1.3580 h1         1 R26       0.049200
     33 H6          -1.4580    -1.6720    -0.3530 h1         1 R26       0.049200
     34 H7          -2.0630     1.1670     0.1940 hn         1 R26       0.517800
     35 H9           4.0470     2.7810    -0.4630 ha         1 R26       0.147000
     36 H10          5.7870     1.0480    -0.3450 ha         1 R26       0.130000
     37 H11          2.7420    -1.9540     0.1820 ha         1 R26       0.147000
@<TRIPOS>BOND
     1     1     2 3   
     2     2     3 1   
     3     3     4 ar  
     4     3     6 ar  
     5     4     5 ar  
     6     4    28 1   
     7     5     8 ar  
     8     5    29 1   
     9     6     7 ar  
    10     6    30 1   
    11     7     8 ar  
    12     7    31 1   
    13     8     9 1   
    14     9    10 1   
    15     9    32 1   
    16     9    33 1   
    17    10    11 1   
    18    10    34 1   
    19    11    12 ar  
    20    11    20 ar  
    21    12    13 1   
    22    12    16 ar  
    23    13    14 1   
    24    13    15 1   
    25    16    17 ar  
    26    17    18 ar  
    27    17    21 ar  
    28    18    19 ar  
    29    18    35 1   
    30    19    23 ar  
    31    19    36 1   
    32    20    21 ar  
    33    21    22 ar  
    34    22    23 ar  
    35    22    37 1   
    36    23    24 1   
    37    24    25 1   
    38    24    26 1   
    39    24    27 1   
@<TRIPOS>SUBSTRUCTURE
     1 R26         1 TEMP              0 ****  ****    0 ROOT
