@<TRIPOS>MOLECULE
R26
   37    39     1     0     0
SMALL
No Charge or Current Charge


@<TRIPOS>ATOM
      1 N37         -8.8690    -1.1900     0.1390 n1         1 R26      -0.485000
      2 CAW         -7.7020    -1.1630     0.1030 cg         1 R26       0.340000
      3 CAV         -6.2650    -1.1420     0.0570 ca         1 R26      -0.033000
      4 CAU         -5.5970    -1.0240    -1.1770 ca         1 R26      -0.075500
      5 CAT         -4.1910    -1.0030    -1.2210 ca         1 R26      -0.098500
      6 CAY         -5.5160    -1.2380     1.2460 ca         1 R26      -0.075500
      7 CAZ         -4.1110    -1.2170     1.2000 ca         1 R26      -0.098500
      8 CAS         -3.4400    -1.1010    -0.0330 ca         1 R26      -0.059300
      9 CAR         -1.9180    -1.0760    -0.0810 c3         1 R26       0.278100
     10 NAQ         -1.4330     0.3020     0.0610 nu         1 R26      -0.935100
     11 CAP         -0.1280     0.7730     0.0290 ca         1 R26       0.599900
     12 CAC          0.2520     2.1600    -0.0060 ca         1 R26       0.242500
     13 CAB         -0.8300     3.2590    -0.0160 c          1 R26       0.623500
     14 OAA         -0.4810     4.4360    -0.0110 o          1 R26      -0.679000
     15 OBA         -2.0160     2.9420    -0.0330 o          1 R26      -0.679000
     16 NAD          1.5850     2.5170    -0.0330 nb         1 R26      -0.602000
     17 CAE          2.4930     1.5050    -0.0250 ca         1 R26       0.184000
     18 CAF          3.8660     1.8100    -0.0550 ca         1 R26      -0.049000
     19 CAG          4.8360     0.7950    -0.0480 ca         1 R26      -0.128000
     20 NAO          0.7750    -0.2310     0.0360 nb         1 R26      -0.813000
     21 CAN          2.0870     0.1300     0.0100 ca         1 R26       0.279000
     22 CAM          3.0760    -0.8740     0.0160 ca         1 R26      -0.057000
     23 CAH          4.4520    -0.5600    -0.0050 ca         1 R26      -0.196300
     24 CAI          5.4980    -1.6820    -0.0080 c3         1 R26       0.354300
     25 FAL          6.7010    -1.2740     0.4580 f          1 R26      -0.123333
     26 FAJ          5.1220    -2.7300     0.7620 f          1 R26      -0.123333
     27 FAK          5.7000    -2.1610    -1.2560 f          1 R26      -0.123333
     28 H1          -6.1640    -0.9480    -2.1030 ha         1 R26       0.119000
     29 H2          -3.6850    -0.9100    -2.1800 ha         1 R26       0.127000
     30 H3          -6.0210    -1.3280     2.2060 ha         1 R26       0.119000
     31 H4          -3.5420    -1.2890     2.1250 ha         1 R26       0.127000
     32 H5          -1.5180    -1.7060     0.7260 h1         1 R26       0.049200
     33 H6          -1.5770    -1.5020    -1.0350 h1         1 R26       0.049200
     34 H7          -2.1250     1.0630     0.0260 hn         1 R26       0.573000
     35 H9           4.1810     2.8490    -0.0850 ha         1 R26       0.129000
     36 H10          5.8890     1.0710    -0.0790 ha         1 R26       0.112000
     37 H11          2.7590    -1.9140     0.0360 ha         1 R26       0.129000
@<TRIPOS>BOND
     1     1     2 3   
     2     2     3 1   
     3     3     4 ar  
     4     3     6 ar  
     5     4     5 ar  
     6     4    28 1   
     7     5     8 ar  
     8     5    29 1   
     9     6     7 ar  
    10     6    30 1   
    11     7     8 ar  
    12     7    31 1   
    13     8     9 1   
    14     9    10 1   
    15     9    32 1   
    16     9    33 1   
    17    10    11 1   
    18    10    34 1   
    19    11    12 ar  
    20    11    20 ar  
    21    12    13 1   
    22    12    16 ar  
    23    13    14 1   
    24    13    15 1   
    25    16    17 ar  
    26    17    18 ar  
    27    17    21 ar  
    28    18    19 ar  
    29    18    35 1   
    30    19    23 ar  
    31    19    36 1   
    32    20    21 ar  
    33    21    22 ar  
    34    22    23 ar  
    35    22    37 1   
    36    23    24 1   
    37    24    25 1   
    38    24    26 1   
    39    24    27 1   
@<TRIPOS>SUBSTRUCTURE
     1 R26         1 TEMP              0 ****  ****    0 ROOT
