@<TRIPOS>MOLECULE
R27
  134   137     1     0     0
SMALL
bcc


@<TRIPOS>ATOM
      1 C4          -2.4620   -11.1460     3.1890 c6         1 R27      -0.106400
      2 C14         -6.3880    -8.8630    10.8550 c6         1 R27      -0.100400
      3 C5          -1.3640   -10.2330     3.7470 c6         1 R27      -0.025500
      4 C6          -1.9780    -9.2350     4.6770 c2         1 R27      -0.152200
      5 C11         -5.9050    -9.5140     8.0390 c6         1 R27       0.043700
      6 C7          -1.9580    -9.2230     6.0110 c2         1 R27      -0.120400
      7 C8          -1.2730   -10.2420     6.8690 c3         1 R27      -0.055900
      8 C9          -2.6970    -8.1220     6.7260 c3         1 R27       0.183300
      9 C10         -4.9760    -8.5230     7.3470 c          1 R27       0.637100
     10 C12         -5.0960   -11.5550     9.0150 c          1 R27       0.598100
     11 C13         -5.0900    -9.4860    10.3700 c6         1 R27       0.099000
     12 N1          -5.2920   -10.2380     9.1390 n          1 R27      -0.435800
     13 N3           2.5150    -8.7080     7.6520 ns         1 R27      -0.349900
     14 C1          -1.2160   -11.4370     1.0400 c6         1 R27       0.150100
     15 C15         -7.0240    -8.0270     9.7520 c6         1 R27      -0.077400
     16 C16         -7.2130    -8.8680     8.4970 c6         1 R27      -0.081400
     17 C17         -1.8220    -7.2090     7.5970 c3         1 R27      -0.094700
     18 C18         -0.8180    -6.4580     6.6940 c3         1 R27       0.157100
     19 C19          0.3070    -5.8090     7.4950 c3         1 R27      -0.110700
     20 C2          -1.9210   -12.1570     2.1790 c6         1 R27       0.154100
     21 C20          1.3860    -6.7400     7.9890 c2         1 R27       0.371300
     22 C21          2.0930    -6.2600     9.2490 c3         1 R27      -0.094800
     23 C22          1.4460    -6.9330    10.4290 c2         1 R27      -0.188200
     24 C23          0.5570    -6.4020    11.2730 c2         1 R27      -0.089400
     25 C24         -0.0990    -7.2460    12.3320 c3         1 R27      -0.048200
     26 C25         -1.4170    -7.8720    11.8170 c3         1 R27      -0.052700
     27 C26         -2.4710    -7.9090    12.9180 c3         1 R27      -0.089100
     28 C27         -1.2090    -9.2340    11.1270 c3         1 R27      -0.070400
     29 C28         -1.0950   -10.4330    12.0620 c3         1 R27       0.161100
     30 C30         -1.3790   -11.7860    11.3840 c6         1 R27       0.125100
     31 C31         -0.5610   -12.1450    10.1500 c6         1 R27       0.124100
     32 C33         -1.0970   -13.4470     9.5590 c6         1 R27      -0.107400
     33 C34         -2.5920   -13.3670     9.2550 c6         1 R27      -0.057700
     34 C35         -3.1210   -14.6820     8.7010 c3         1 R27      -0.082100
     35 C36         -3.3360   -12.8950    10.5080 c6         1 R27       0.283600
     36 C37         -4.7740   -12.3970    10.2440 c          1 R27       0.493100
     37 C38          0.0720    -4.9840    11.2450 c3         1 R27      -0.062900
     38 C39          3.6300    -6.3650     9.2870 c3         1 R27      -0.036200
     39 C40          4.2810    -5.8730     8.0330 c2         1 R27      -0.175200
     40 C41          5.0030    -4.7620     7.9520 c2         1 R27      -0.208000
     41 C42          2.8610    -9.7080     6.7940 c          1 R27       0.687100
     42 C43          2.2160    -9.6850     5.4360 c3         1 R27      -0.166100
     43 C44         -2.6860    -6.2490     8.4130 c3         1 R27      -0.084100
     44 C45         -0.6320    -9.5380     2.5990 c6         1 R27      -0.069400
     45 C46         -0.1040   -10.5510     1.5930 c6         1 R27      -0.115400
     46 O1          -0.7180   -12.4060     0.1440 oh         1 R27      -0.581800
     47 O10         -3.3530   -13.9180    11.4290 oh         1 R27      -0.586800
     48 O11         -5.6820   -12.7270    10.9630 o          1 R27      -0.483100
     49 O12          3.6750   -10.5490     7.1360 o          1 R27      -0.594100
     50 O2          -2.9480   -12.9530     1.6330 os         1 R27      -0.393600
     51 O3          -3.6950    -8.7770     7.5500 os         1 R27      -0.412900
     52 O4          -5.2590   -12.1980     7.9890 o          1 R27      -0.591100
     53 O5          -5.4030    -7.6540     6.6300 o          1 R27      -0.538000
     54 O6          -1.4500    -5.4240     5.9610 oh         1 R27      -0.600800
     55 O7           0.1670   -10.4090    12.6840 os         1 R27      -0.395600
     56 O8           0.7890   -12.2880    10.5170 os         1 R27      -0.393600
     57 O9          -2.7550   -11.7230    11.0200 os         1 R27      -0.462600
     58 H7          -3.2310   -10.5340     2.7030 hc         1 R27       0.055700
     59 H8          -2.9480   -11.6660     4.0170 hc         1 R27       0.055700
     60 H19         -6.1740    -8.2520    11.7340 hc         1 R27       0.055200
     61 H18         -7.0730    -9.6550    11.1680 hc         1 R27       0.055200
     62 H9          -0.6390   -10.8620     4.2740 hc         1 R27       0.054700
     63 H10         -2.5390    -8.4490     4.1740 ha         1 R27       0.117000
     64 H15         -6.1370   -10.2450     7.2580 h1         1 R27       0.111700
     65 H13         -0.4570    -9.8000     7.4460 hc         1 R27       0.047367
     66 H12         -1.9690   -10.6690     7.5920 hc         1 R27       0.047367
     67 H11         -0.8600   -11.0670     6.2930 hc         1 R27       0.047367
     68 H14         -3.2160    -7.5030     5.9920 h1         1 R27       0.067700
     69 H16         -4.6600   -10.1300    11.1320 h1         1 R27       0.062200
     70 H17         -4.3470    -8.7060    10.1790 h1         1 R27       0.062200
     71 H6          -4.1110   -14.5820     1.9200 h1         1 R27       0.029033
     72 H4          -2.5830   -14.6250     2.8140 h1         1 R27       0.029033
     73 H5          -3.9140   -13.6000     3.3750 h1         1 R27       0.029033
     74 H63          2.9480    -8.7200     8.5670 hn         1 R27       0.317500
     75 H2          -1.9560   -10.7890     0.5410 h1         1 R27       0.041700
     76 H21         -6.3910    -7.1610     9.5320 hc         1 R27       0.050200
     77 H20         -7.9870    -7.6320    10.0800 hc         1 R27       0.050200
     78 H22         -7.6330    -8.2800     7.6820 hc         1 R27       0.066700
     79 H23         -7.9250    -9.6730     8.7000 hc         1 R27       0.066700
     80 H24         -1.2430    -7.8290     8.2910 hc         1 R27       0.069700
     81 H25         -0.3600    -7.1750     6.0060 h1         1 R27       0.056700
     82 H27          0.7940    -5.0530     6.8670 hc         1 R27       0.070200
     83 H28         -0.0960    -5.2570     8.3470 hc         1 R27       0.070200
     84 H3          -1.1790   -12.7990     2.6860 h1         1 R27       0.041700
     85 H29          1.8860    -5.1900     9.2910 hc         1 R27       0.064700
     86 H30          1.7240    -7.9750    10.5760 ha         1 R27       0.127000
     87 H31          0.5710    -8.0310    12.6800 hc         1 R27       0.058700
     88 H32         -0.3170    -6.6160    13.2000 hc         1 R27       0.058700
     89 H33         -1.8060    -7.2070    11.0380 hc         1 R27       0.043700
     90 H36         -2.7370    -6.8950    13.2190 hc         1 R27       0.032700
     91 H34         -3.3860    -8.4070    12.5900 hc         1 R27       0.032700
     92 H35         -2.1180    -8.4270    13.8130 hc         1 R27       0.032700
     93 H37         -2.0520    -9.4040    10.4530 hc         1 R27       0.055200
     94 H38         -0.3280    -9.1800    10.4790 hc         1 R27       0.055200
     95 H39         -1.8800   -10.3460    12.8290 h1         1 R27       0.039700
     96 H40          1.2160   -10.8820    14.3470 h1         1 R27       0.030033
     97 H42         -0.5290   -10.7300    14.6180 h1         1 R27       0.030033
     98 H41          0.1270   -12.1680    13.8170 h1         1 R27       0.030033
     99 H43         -1.2350   -12.5780    12.1330 h1         1 R27       0.063700
    100 H44         -0.6790   -11.3410     9.4090 h1         1 R27       0.043700
    101 H45          2.6990   -12.0810     9.8780 h1         1 R27       0.031367
    102 H47          1.5510   -12.4240     8.5760 h1         1 R27       0.031367
    103 H46          1.6010   -10.8110     9.3080 h1         1 R27       0.031367
    104 H48         -0.8980   -14.2630    10.2600 hc         1 R27       0.061700
    105 H49         -0.5660   -13.6840     8.6330 hc         1 R27       0.061700
    106 H50         -2.7270   -12.5940     8.4930 hc         1 R27       0.066700
    107 H52         -4.1930   -14.6460     8.5080 hc         1 R27       0.046033
    108 H53         -2.6290   -14.9050     7.7540 hc         1 R27       0.046033
    109 H51         -2.9250   -15.5120     9.3790 hc         1 R27       0.046033
    110 H57          0.3090    -4.4940    12.1920 hc         1 R27       0.042367
    111 H55          0.4910    -4.3770    10.4450 hc         1 R27       0.042367
    112 H56         -1.0160    -4.9510    11.1490 hc         1 R27       0.042367
    113 H59          3.9630    -7.3820     9.5110 hc         1 R27       0.051200
    114 H58          3.9610    -5.7600    10.1340 hc         1 R27       0.051200
    115 H60          4.1330    -6.4710     7.1380 ha         1 R27       0.124000
    116 H62          5.4470    -4.4410     7.0190 ha         1 R27       0.113500
    117 H61          5.1810    -4.1330     8.8170 ha         1 R27       0.113500
    118 H65          2.5330   -10.5600     4.8750 hc         1 R27       0.065700
    119 H64          1.1300    -9.6770     5.5070 hc         1 R27       0.065700
    120 H66          2.5040    -8.7890     4.8850 hc         1 R27       0.065700
    121 H68         -3.2880    -6.7790     9.1500 hc         1 R27       0.040033
    122 H69         -2.0740    -5.5380     8.9690 hc         1 R27       0.040033
    123 H67         -3.3600    -5.6760     7.7770 hc         1 R27       0.040033
    124 H70          0.1920    -8.9350     2.9890 hc         1 R27       0.043700
    125 H71         -1.3190    -8.8440     2.1020 hc         1 R27       0.043700
    126 H72          0.6520   -11.1840     2.0700 hc         1 R27       0.047700
    127 H73          0.3930   -10.0350     0.7670 hc         1 R27       0.047700
    128 H1          -0.2520   -11.9460    -0.5610 ho         1 R27       0.400000
    129 H54         -3.9890   -13.7210    12.1300 ho         1 R27       0.430000
    130 H26         -1.9250    -5.8140     5.2210 ho         1 R27       0.407000
    131 N2           1.5820    -7.7950     7.3080 n2         1 R27      -0.470300
    132 C3          -3.4020   -13.9750     2.4820 c3         1 R27       0.123700
    133 C29          0.2360   -11.0830    13.9150 c3         1 R27       0.122700
    134 C32          1.6900   -11.8830     9.5190 c3         1 R27       0.126700
@<TRIPOS>BOND
     1     1     3 1   
     2     1    20 1   
     3     1    58 1   
     4     1    59 1   
     5     2    11 1   
     6     2    15 1   
     7     2    60 1   
     8     2    61 1   
     9     3     4 1   
    10     3    44 1   
    11     3    62 1   
    12     4     6 2   
    13     4    63 1   
    14     5     9 1   
    15     5    12 1   
    16     5    16 1   
    17     5    64 1   
    18     6     7 1   
    19     6     8 1   
    20     7    65 1   
    21     7    66 1   
    22     7    67 1   
    23     8    17 1   
    24     8    51 1   
    25     8    68 1   
    26     9    51 1   
    27     9    53 2   
    28    10    12 1   
    29    10    36 1   
    30    10    52 2   
    31    11    12 1   
    32    11    69 1   
    33    11    70 1   
    34    13    41 1   
    35    13    74 1   
    36    13   131 1   
    37    14    20 1   
    38    14    45 1   
    39    14    46 1   
    40    14    75 1   
    41    15    16 1   
    42    15    76 1   
    43    15    77 1   
    44    16    78 1   
    45    16    79 1   
    46    17    18 1   
    47    17    43 1   
    48    17    80 1   
    49    18    19 1   
    50    18    54 1   
    51    18    81 1   
    52    19    21 1   
    53    19    82 1   
    54    19    83 1   
    55    20    50 1   
    56    20    84 1   
    57    21    22 1   
    58    21   131 2   
    59    22    23 1   
    60    22    38 1   
    61    22    85 1   
    62    23    24 2   
    63    23    86 1   
    64    24    25 1   
    65    24    37 1   
    66    25    26 1   
    67    25    87 1   
    68    25    88 1   
    69    26    27 1   
    70    26    28 1   
    71    26    89 1   
    72    27    90 1   
    73    27    91 1   
    74    27    92 1   
    75    28    29 1   
    76    28    93 1   
    77    28    94 1   
    78    29    30 1   
    79    29    55 1   
    80    29    95 1   
    81    30    31 1   
    82    30    57 1   
    83    30    99 1   
    84    31    32 1   
    85    31    56 1   
    86    31   100 1   
    87    32    33 1   
    88    32   104 1   
    89    32   105 1   
    90    33    34 1   
    91    33    35 1   
    92    33   106 1   
    93    34   107 1   
    94    34   108 1   
    95    34   109 1   
    96    35    36 1   
    97    35    47 1   
    98    35    57 1   
    99    36    48 2   
   100    37   110 1   
   101    37   111 1   
   102    37   112 1   
   103    38    39 1   
   104    38   113 1   
   105    38   114 1   
   106    39    40 2   
   107    39   115 1   
   108    40   116 1   
   109    40   117 1   
   110    41    42 1   
   111    41    49 2   
   112    42   118 1   
   113    42   119 1   
   114    42   120 1   
   115    43   121 1   
   116    43   122 1   
   117    43   123 1   
   118    44    45 1   
   119    44   124 1   
   120    44   125 1   
   121    45   126 1   
   122    45   127 1   
   123    46   128 1   
   124    47   129 1   
   125    50   132 1   
   126    54   130 1   
   127    55   133 1   
   128    56   134 1   
   129    71   132 1   
   130    72   132 1   
   131    73   132 1   
   132    96   133 1   
   133    97   133 1   
   134    98   133 1   
   135   101   134 1   
   136   102   134 1   
   137   103   134 1   
@<TRIPOS>SUBSTRUCTURE
     1 R27         1 TEMP              0 ****  ****    0 ROOT
