@<TRIPOS>MOLECULE
R27
  134   137     1     0     0
SMALL
No Charge or Current Charge


@<TRIPOS>ATOM
      1 C4          -2.1530   -11.3390     3.8770 c6         1 R27      -0.106400
      2 C14         -6.0040    -8.5980    11.4410 c6         1 R27      -0.100400
      3 C5          -1.2920   -10.0950     4.2180 c6         1 R27      -0.025500
      4 C6          -2.1420    -9.0130     4.8770 c2         1 R27      -0.202200
      5 C11         -6.1730    -9.1590     8.5050 c6         1 R27       0.043700
      6 C7          -2.3580    -8.8670     6.2010 c2         1 R27      -0.120400
      7 C8          -1.8370    -9.8180     7.2700 c3         1 R27      -0.055900
      8 C9          -3.1130    -7.6490     6.7570 c3         1 R27       0.206500
      9 C10         -5.1150    -8.9040     7.3860 c          1 R27       0.588100
     10 C12         -5.6520   -11.6170     9.0250 c          1 R27       0.531100
     11 C13         -5.4300    -9.9120    10.8820 c6         1 R27       0.099000
     12 N1          -5.8250   -10.2770     9.4810 n          1 R27      -0.368800
     13 N3           1.9300    -8.8500     7.5360 ns         1 R27      -0.282900
     14 C1          -0.5810   -11.8860     1.9190 c6         1 R27       0.173300
     15 C15         -5.8210    -7.4610    10.4390 c6         1 R27      -0.077400
     16 C16         -6.6120    -7.8170     9.1730 c6         1 R27      -0.081400
     17 C17         -2.1440    -6.6120     7.4090 c3         1 R27      -0.094700
     18 C18         -1.0980    -6.0780     6.3690 c3         1 R27       0.180300
     19 C19          0.2170    -5.5500     7.0030 c3         1 R27      -0.110700
     20 C2          -1.3070   -12.4510     3.1900 c6         1 R27       0.177300
     21 C20          1.0820    -6.6460     7.6240 c2         1 R27       0.371300
     22 C21          1.8080    -6.2390     8.9230 c3         1 R27      -0.094800
     23 C22          1.2500    -7.0110    10.1180 c2         1 R27      -0.238200
     24 C23          0.3220    -6.6090    11.0090 c2         1 R27      -0.089400
     25 C24         -0.1370    -7.5020    12.1550 c3         1 R27      -0.048200
     26 C25         -1.4910    -8.2110    11.8660 c3         1 R27      -0.052700
     27 C26         -2.3170    -8.4200    13.1580 c3         1 R27      -0.089100
     28 C27         -1.3590    -9.4990    10.9920 c3         1 R27      -0.070400
     29 C28         -1.0700   -10.8430    11.7370 c3         1 R27       0.184300
     30 C30         -1.5000   -12.1390    10.9420 c6         1 R27       0.148300
     31 C31         -0.7690   -12.3320     9.5740 c6         1 R27       0.147300
     32 C33         -1.4610   -13.4430     8.7360 c6         1 R27      -0.107400
     33 C34         -3.0050   -13.2560     8.6520 c6         1 R27      -0.057700
     34 C35         -3.6400   -14.4300     7.8460 c3         1 R27      -0.082100
     35 C36         -3.6330   -13.0870    10.0790 c6         1 R27       0.330000
     36 C37         -5.1750   -12.7310    10.0620 c          1 R27       0.493100
     37 C38         -0.3790    -5.2520    11.0170 c3         1 R27      -0.062900
     38 C39          3.3550    -6.3180     8.8520 c3         1 R27      -0.036200
     39 C40          3.9300    -5.4670     7.7360 c2         1 R27      -0.225200
     40 C41          4.6210    -4.3300     7.9110 c2         1 R27      -0.308000
     41 C42          2.9900    -9.4250     6.8450 c          1 R27       0.620100
     42 C43          3.2630    -8.9300     5.4220 c3         1 R27      -0.166100
     43 C44         -2.8970    -5.4720     8.1540 c3         1 R27      -0.084100
     44 C45         -0.5870    -9.5500     2.9500 c6         1 R27      -0.069400
     45 C46          0.2740   -10.6440     2.2750 c6         1 R27      -0.115400
     46 O1           0.2530   -12.8790     1.2950 oh         1 R27      -0.704000
     47 O10         -3.4140   -14.2670    10.8680 oh         1 R27      -0.649000
     48 O11         -5.9530   -13.1720    10.9130 o          1 R27      -0.483100
     49 O12          3.6650   -10.3050     7.3580 o          1 R27      -0.594100
     50 O2          -2.1210   -13.6000     2.8390 os         1 R27      -0.440000
     51 O3          -4.0880    -8.0590     7.7480 os         1 R27      -0.436100
     52 O4          -5.9200   -11.9200     7.8660 o          1 R27      -0.591100
     53 O5          -5.1920    -9.4490     6.2920 o          1 R27      -0.489000
     54 O6          -1.6870    -5.0380     5.5760 oh         1 R27      -0.663000
     55 O7           0.3330   -10.8470    12.0860 os         1 R27      -0.442000
     56 O8           0.6280   -12.6480     9.7730 os         1 R27      -0.440000
     57 O9          -2.9420   -12.0160    10.7540 os         1 R27      -0.509000
     58 H7          -2.9840   -11.0480     3.2200 hc         1 R27       0.055700
     59 H8          -2.6040   -11.7200     4.8020 hc         1 R27       0.055700
     60 H19         -5.5130    -8.3490    12.3910 hc         1 R27       0.055200
     61 H18         -7.0710    -8.7300    11.6700 hc         1 R27       0.055200
     62 H9          -0.4980   -10.4020     4.9140 hc         1 R27       0.054700
     63 H10         -2.5520    -8.2720     4.1890 ha         1 R27       0.167000
     64 H15         -7.0450    -9.5040     7.9310 h1         1 R27       0.111700
     65 H13         -1.0250    -9.3610     7.8430 hc         1 R27       0.047367
     66 H12         -2.6210   -10.0990     7.9800 hc         1 R27       0.047367
     67 H11         -1.4530   -10.7540     6.8550 hc         1 R27       0.047367
     68 H14         -3.6340    -7.1440     5.9320 h1         1 R27       0.067700
     69 H16         -5.7200   -10.7120    11.5770 h1         1 R27       0.062200
     70 H17         -4.3370    -9.8450    10.9180 h1         1 R27       0.062200
     71 H6          -3.1910   -15.2590     3.5230 h1         1 R27       0.029033
     72 H4          -1.9390   -14.6670     4.6360 h1         1 R27       0.029033
     73 H5          -3.4690   -13.7700     4.4430 h1         1 R27       0.029033
     74 H63          1.7550    -9.2530     8.4510 hn         1 R27       0.317500
     75 H2          -1.3600   -11.5670     1.2100 h1         1 R27       0.041700
     76 H21         -4.7560    -7.3210    10.2170 hc         1 R27       0.050200
     77 H20         -6.1910    -6.5170    10.8640 hc         1 R27       0.050200
     78 H22         -6.5510    -6.9940     8.4470 hc         1 R27       0.066700
     79 H23         -7.6770    -7.8920     9.4360 hc         1 R27       0.066700
     80 H24         -1.5840    -7.1510     8.1820 hc         1 R27       0.069700
     81 H25         -0.8120    -6.8980     5.7000 h1         1 R27       0.056700
     82 H27          0.8120    -5.0490     6.2310 hc         1 R27       0.070200
     83 H28         -0.0360    -4.7760     7.7330 hc         1 R27       0.070200
     84 H3          -0.5360   -12.7860     3.8990 h1         1 R27       0.041700
     85 H29          1.6340    -5.1720     9.0910 hc         1 R27       0.064700
     86 H30          1.6860    -8.0040    10.2350 ha         1 R27       0.177000
     87 H31          0.6230    -8.2590    12.3820 hc         1 R27       0.058700
     88 H32         -0.2200    -6.9010    13.0690 hc         1 R27       0.058700
     89 H33         -2.0890    -7.5190    11.2620 hc         1 R27       0.043700
     90 H36         -2.5970    -7.4540    13.5950 hc         1 R27       0.032700
     91 H34         -3.2390    -8.9740    12.9490 hc         1 R27       0.032700
     92 H35         -1.7430    -8.9750    13.9090 hc         1 R27       0.032700
     93 H37         -2.2860    -9.6020    10.4240 hc         1 R27       0.055200
     94 H38         -0.5840    -9.3390    10.2340 hc         1 R27       0.055200
     95 H39         -1.6700   -10.8650    12.6540 h1         1 R27       0.039700
     96 H40          1.8100   -11.7210    13.2760 h1         1 R27       0.030033
     97 H42          0.1640   -11.8250    13.9340 h1         1 R27       0.030033
     98 H41          0.6550   -12.8670    12.5740 h1         1 R27       0.030033
     99 H43         -1.3080   -13.0160    11.5750 h1         1 R27       0.063700
    100 H44         -0.8230   -11.3870     9.0260 h1         1 R27       0.043700
    101 H45          2.5260   -12.7730     8.9090 h1         1 R27       0.031367
    102 H47          1.2320   -13.5410     7.9700 h1         1 R27       0.031367
    103 H46          1.3620   -11.7660     8.0190 h1         1 R27       0.031367
    104 H48         -1.2300   -14.4220     9.1780 hc         1 R27       0.061700
    105 H49         -1.0500   -13.4550     7.7180 hc         1 R27       0.061700
    106 H50         -3.2020   -12.3480     8.0700 hc         1 R27       0.066700
    107 H52         -4.7240   -14.3170     7.7350 hc         1 R27       0.046033
    108 H53         -3.2150   -14.4880     6.8380 hc         1 R27       0.046033
    109 H51         -3.4580   -15.3960     8.3330 hc         1 R27       0.046033
    110 H57         -0.1240    -4.6900    11.9230 hc         1 R27       0.042367
    111 H55         -0.1210    -4.6180    10.1660 hc         1 R27       0.042367
    112 H56         -1.4690    -5.3610    10.9990 hc         1 R27       0.042367
    113 H59          3.6910    -7.3550     8.7460 hc         1 R27       0.051200
    114 H58          3.7560    -5.9810     9.8160 hc         1 R27       0.051200
    115 H60          3.7510    -5.8510     6.7300 ha         1 R27       0.174000
    116 H62          5.0130    -3.7640     7.0640 ha         1 R27       0.163500
    117 H61          4.8200    -3.9230     8.9040 ha         1 R27       0.163500
    118 H65          4.1050    -9.4480     4.9520 hc         1 R27       0.065700
    119 H64          2.3470    -9.0300     4.8290 hc         1 R27       0.065700
    120 H66          3.4140    -7.8460     5.4370 hc         1 R27       0.065700
    121 H68         -3.4410    -5.8620     9.0200 hc         1 R27       0.040033
    122 H69         -2.2030    -4.7110     8.5260 hc         1 R27       0.040033
    123 H67         -3.6210    -4.9800     7.4930 hc         1 R27       0.040033
    124 H70          0.0480    -8.6940     3.2170 hc         1 R27       0.043700
    125 H71         -1.3330    -9.1750     2.2350 hc         1 R27       0.043700
    126 H72          1.0960   -10.9340     2.9450 hc         1 R27       0.047700
    127 H73          0.7390   -10.2340     1.3680 hc         1 R27       0.047700
    128 H1           0.5330   -12.5080     0.4280 ho         1 R27       0.499000
    129 H54         -3.8670   -14.0960    11.7210 ho         1 R27       0.469000
    130 H26         -1.0700    -4.8490     4.8370 ho         1 R27       0.446000
    131 N2           1.1480    -7.8120     7.0530 n2         1 R27      -0.470300
    132 C3          -2.7060   -14.3560     3.9150 c3         1 R27       0.146900
    133 C29          0.7550   -11.8660    13.0100 c3         1 R27       0.145900
    134 C32          1.4740   -12.6840     8.6100 c3         1 R27       0.149900
@<TRIPOS>BOND
     1     1     3 1   
     2     1    20 1   
     3     1    58 1   
     4     1    59 1   
     5     2    11 1   
     6     2    15 1   
     7     2    60 1   
     8     2    61 1   
     9     3     4 1   
    10     3    44 1   
    11     3    62 1   
    12     4     6 2   
    13     4    63 1   
    14     5     9 1   
    15     5    12 1   
    16     5    16 1   
    17     5    64 1   
    18     6     7 1   
    19     6     8 1   
    20     7    65 1   
    21     7    66 1   
    22     7    67 1   
    23     8    17 1   
    24     8    51 1   
    25     8    68 1   
    26     9    51 1   
    27     9    53 2   
    28    10    12 1   
    29    10    36 1   
    30    10    52 2   
    31    11    12 1   
    32    11    69 1   
    33    11    70 1   
    34    13    41 1   
    35    13    74 1   
    36    13   131 1   
    37    14    20 1   
    38    14    45 1   
    39    14    46 1   
    40    14    75 1   
    41    15    16 1   
    42    15    76 1   
    43    15    77 1   
    44    16    78 1   
    45    16    79 1   
    46    17    18 1   
    47    17    43 1   
    48    17    80 1   
    49    18    19 1   
    50    18    54 1   
    51    18    81 1   
    52    19    21 1   
    53    19    82 1   
    54    19    83 1   
    55    20    50 1   
    56    20    84 1   
    57    21    22 1   
    58    21   131 2   
    59    22    23 1   
    60    22    38 1   
    61    22    85 1   
    62    23    24 2   
    63    23    86 1   
    64    24    25 1   
    65    24    37 1   
    66    25    26 1   
    67    25    87 1   
    68    25    88 1   
    69    26    27 1   
    70    26    28 1   
    71    26    89 1   
    72    27    90 1   
    73    27    91 1   
    74    27    92 1   
    75    28    29 1   
    76    28    93 1   
    77    28    94 1   
    78    29    30 1   
    79    29    55 1   
    80    29    95 1   
    81    30    31 1   
    82    30    57 1   
    83    30    99 1   
    84    31    32 1   
    85    31    56 1   
    86    31   100 1   
    87    32    33 1   
    88    32   104 1   
    89    32   105 1   
    90    33    34 1   
    91    33    35 1   
    92    33   106 1   
    93    34   107 1   
    94    34   108 1   
    95    34   109 1   
    96    35    36 1   
    97    35    47 1   
    98    35    57 1   
    99    36    48 2   
   100    37   110 1   
   101    37   111 1   
   102    37   112 1   
   103    38    39 1   
   104    38   113 1   
   105    38   114 1   
   106    39    40 2   
   107    39   115 1   
   108    40   116 1   
   109    40   117 1   
   110    41    42 1   
   111    41    49 2   
   112    42   118 1   
   113    42   119 1   
   114    42   120 1   
   115    43   121 1   
   116    43   122 1   
   117    43   123 1   
   118    44    45 1   
   119    44   124 1   
   120    44   125 1   
   121    45   126 1   
   122    45   127 1   
   123    46   128 1   
   124    47   129 1   
   125    50   132 1   
   126    54   130 1   
   127    55   133 1   
   128    56   134 1   
   129    71   132 1   
   130    72   132 1   
   131    73   132 1   
   132    96   133 1   
   133    97   133 1   
   134    98   133 1   
   135   101   134 1   
   136   102   134 1   
   137   103   134 1   
@<TRIPOS>SUBSTRUCTURE
     1 R27         1 TEMP              0 ****  ****    0 ROOT
