@<TRIPOS>MOLECULE
R28
   84    87     1     0     0
SMALL
bcc


@<TRIPOS>ATOM
      1 C10          4.5810    11.6870    25.9590 ca         1 R28       0.661100
      2 C15          5.3580    15.7460    26.1380 ca         1 R28      -0.124000
      3 C20         10.1630    15.0230    28.7130 c3         1 R28      -0.076100
      4 C22          5.8300    18.0890    25.7650 ca         1 R28       0.079600
      5 C24          6.6070    20.1700    24.7740 c3         1 R28       0.178100
      6 C26          5.8680    20.3610    27.8140 c3         1 R28       0.129800
      7 C28          5.1950    21.8880    29.5220 c3         1 R28       0.148600
      8 C01          8.2160     9.0940    28.1560 c3         1 R28       0.033600
      9 C03          8.1570    11.0910    26.6540 ca         1 R28      -0.057200
     10 C04          7.1600    11.8450    26.0050 ca         1 R28      -0.044800
     11 C05          7.5470    12.9290    25.2100 ca         1 R28      -0.063000
     12 C06          8.8900    13.2350    25.1060 ca         1 R28      -0.162000
     13 C07          9.8640    12.4770    25.7720 ca         1 R28      -0.118000
     14 C08          9.5130    11.3910    26.5510 ca         1 R28      -0.142000
     15 C09          5.9050    11.2180    26.3200 cc         1 R28      -0.234000
     16 C12          3.2570    13.5370    25.7000 ca         1 R28       0.934900
     17 C14          4.0570    15.9040    25.6820 ca         1 R28       0.153600
     18 C16          6.2460    16.8170    26.1690 ca         1 R28       0.058600
     19 C19          9.5970    15.9490    27.6520 c3         1 R28      -0.156400
     20 C25          7.0510    19.6790    27.1250 c3         1 R28       0.187800
     21 C29          6.6060    20.0570    30.0880 c3         1 R28       0.148600
     22 C30          4.5200    18.2460    25.3090 ca         1 R28      -0.209000
     23 C31          3.6390    17.1800    25.2590 ca         1 R28       0.085100
     24 C33          1.8580    18.5280    24.4420 c3         1 R28       0.131700
     25 C35          2.2420    11.5340    25.5990 ca         1 R28       0.524200
     26 C36          3.4600    10.8650    25.7350 ca         1 R28      -0.452200
     27 C37          3.4390     9.3960    25.5730 c          1 R28       0.680700
     28 C39          4.7060     7.4980    24.8490 c3         1 R28       0.157100
     29 C40          6.1950     7.2220    24.8930 c3         1 R28      -0.104100
     30 C41          4.0830     7.0770    23.5310 c3         1 R28      -0.104100
     31 C43          6.2050    10.1560    27.1400 cd         1 R28      -0.047100
     32 N02          7.5400    10.0790    27.3460 na         1 R28      -0.051400
     33 N11          4.4550    13.0110    25.9050 nb         1 R28      -0.785000
     34 N13          3.1110    14.8790    25.6100 nu         1 R28      -0.717300
     35 N17          7.5920    16.6410    26.5190 ns         1 R28      -0.479100
     36 N27          6.2460    21.0080    29.0570 n3         1 R28      -0.714600
     37 N34          2.1140    12.8410    25.5860 nb         1 R28      -0.780000
     38 O21          7.3970    15.1530    28.2210 o          1 R28      -0.572100
     39 O32          2.3610    17.2670    24.8340 os         1 R28      -0.334900
     40 O38          4.5500     8.9220    25.0380 os         1 R28      -0.414900
     41 O42          2.4740     8.7210    25.8500 o          1 R28      -0.557000
     42 H1           5.6910    14.7680    26.4320 ha         1 R28       0.200000
     43 H2          11.2460    15.1300    28.7590 hc         1 R28       0.042033
     44 H3           9.7660    15.2500    29.7020 hc         1 R28       0.042033
     45 H4           9.9410    13.9800    28.4920 hc         1 R28       0.042033
     46 H5           7.5010    20.7940    24.7710 h1         1 R28       0.033367
     47 H6           6.5260    19.6990    23.7950 h1         1 R28       0.033367
     48 H7           5.7440    20.8360    24.8990 h1         1 R28       0.033367
     49 H8           5.4670    21.1320    27.1490 h1         1 R28       0.035700
     50 H9           5.0580    19.6280    27.9680 h1         1 R28       0.035700
     51 H10          5.5200    22.4160    30.4190 h1         1 R28       0.031367
     52 H11          4.9650    22.6340    28.7600 h1         1 R28       0.031367
     53 H12          4.2600    21.3600    29.7680 h1         1 R28       0.031367
     54 H13          7.4770     8.4880    28.6740 h1         1 R28       0.050700
     55 H14          8.8330     8.4410    27.5390 h1         1 R28       0.050700
     56 H15          8.8490     9.5790    28.8980 h1         1 R28       0.050700
     57 H16          6.8100    13.5240    24.6890 ha         1 R28       0.148000
     58 H17          9.1990    14.0770    24.5000 ha         1 R28       0.125000
     59 H18         10.9080    12.7440    25.6710 ha         1 R28       0.124000
     60 H19         10.2660    10.7990    27.0560 ha         1 R28       0.129000
     61 H20         10.0470    15.7310    26.6800 hc         1 R28       0.054700
     62 H21          9.8610    16.9880    27.8720 hc         1 R28       0.054700
     63 H22          7.4260    18.8620    27.7440 h1         1 R28       0.058700
     64 H23          7.8680    20.3980    27.0260 h1         1 R28       0.058700
     65 H24          6.8680    20.5890    31.0040 h1         1 R28       0.031367
     66 H25          5.7910    19.3550    30.3280 h1         1 R28       0.031367
     67 H26          7.4770    19.4700    29.7990 h1         1 R28       0.031367
     68 H27          4.1930    19.2300    25.0000 ha         1 R28       0.136000
     69 H28          0.8190    18.3730    24.1620 h1         1 R28       0.040700
     70 H29          1.9010    19.2540    25.2570 h1         1 R28       0.040700
     71 H30          2.3990    18.9290    23.5810 h1         1 R28       0.040700
     72 H31          1.3290    10.9620    25.4730 h4         1 R28       0.038100
     73 H32          4.2150     6.9760    25.6740 h1         1 R28       0.057700
     74 H33          6.6310     7.5120    25.8500 hc         1 R28       0.046200
     75 H34          6.3680     6.1540    24.7600 hc         1 R28       0.046200
     76 H35          6.7220     7.7490    24.0970 hc         1 R28       0.046200
     77 H36          3.0120     7.2760    23.5020 hc         1 R28       0.046200
     78 H37          4.5570     7.5920    22.6940 hc         1 R28       0.046200
     79 H38          4.2240     6.0060    23.3890 hc         1 R28       0.046200
     80 H39          5.5430     9.4630    27.6360 h4         1 R28       0.165000
     81 H40          2.1630    15.1710    25.4250 hn         1 R28       0.472800
     82 H41          8.2280    17.2870    26.0700 hn         1 R28       0.329500
     83 N23          6.7530    19.1540    25.7960 nh         1 R28      -0.653000
     84 C18          8.0910    15.8590    27.5110 c          1 R28       0.667100
@<TRIPOS>BOND
     1     1    15 1   
     2     1    26 ar  
     3     1    33 ar  
     4     2    17 ar  
     5     2    18 ar  
     6     2    42 1   
     7     3    19 1   
     8     3    43 1   
     9     3    44 1   
    10     3    45 1   
    11     4    18 ar  
    12     4    22 ar  
    13     4    83 1   
    14     5    46 1   
    15     5    47 1   
    16     5    48 1   
    17     5    83 1   
    18     6    20 1   
    19     6    36 1   
    20     6    49 1   
    21     6    50 1   
    22     7    36 1   
    23     7    51 1   
    24     7    52 1   
    25     7    53 1   
    26     8    32 1   
    27     8    54 1   
    28     8    55 1   
    29     8    56 1   
    30     9    10 ar  
    31     9    14 ar  
    32     9    32 1   
    33    10    11 ar  
    34    10    15 1   
    35    11    12 ar  
    36    11    57 1   
    37    12    13 ar  
    38    12    58 1   
    39    13    14 ar  
    40    13    59 1   
    41    14    60 1   
    42    15    31 2   
    43    16    33 ar  
    44    16    34 1   
    45    16    37 ar  
    46    17    23 ar  
    47    17    34 1   
    48    18    35 1   
    49    19    61 1   
    50    19    62 1   
    51    19    84 1   
    52    20    63 1   
    53    20    64 1   
    54    20    83 1   
    55    21    36 1   
    56    21    65 1   
    57    21    66 1   
    58    21    67 1   
    59    22    23 ar  
    60    22    68 1   
    61    23    39 1   
    62    24    39 1   
    63    24    69 1   
    64    24    70 1   
    65    24    71 1   
    66    25    26 ar  
    67    25    37 ar  
    68    25    72 1   
    69    26    27 1   
    70    27    40 1   
    71    27    41 2   
    72    28    29 1   
    73    28    30 1   
    74    28    40 1   
    75    28    73 1   
    76    29    74 1   
    77    29    75 1   
    78    29    76 1   
    79    30    77 1   
    80    30    78 1   
    81    30    79 1   
    82    31    32 1   
    83    31    80 1   
    84    34    81 1   
    85    35    82 1   
    86    35    84 1   
    87    38    84 2   
@<TRIPOS>SUBSTRUCTURE
     1 R28         1 TEMP              0 ****  ****    0 ROOT
