@<TRIPOS>MOLECULE
R28
   84    87     1     0     0
SMALL
No Charge or Current Charge


@<TRIPOS>ATOM
      1 C10          4.4990    11.5980    25.9190 ca         1 R28       0.332800
      2 C15          5.1990    15.8220    26.3890 ca         1 R28      -0.106000
      3 C20          9.8630    16.7870    29.2830 c3         1 R28      -0.076100
      4 C22          5.7390    18.0970    25.6940 ca         1 R28       0.218000
      5 C24          6.9050    19.8540    24.3300 c3         1 R28       0.178100
      6 C26          6.0300    19.9230    28.0270 c3         1 R28       0.129800
      7 C28          5.2860    20.8680    30.1760 c3         1 R28       0.148600
      8 C01          8.1830     8.9900    28.1630 c3         1 R28       0.062900
      9 C03          8.0590    11.0320    26.6780 ca         1 R28      -0.057200
     10 C04          7.1190    11.7570    25.9940 ca         1 R28      -0.044800
     11 C05          7.4560    12.9180    25.2770 ca         1 R28      -0.045000
     12 C06          8.8020    13.3370    25.2900 ca         1 R28      -0.144000
     13 C07          9.7740    12.5960    26.0020 ca         1 R28      -0.100000
     14 C08          9.4060    11.4280    26.7040 ca         1 R28      -0.124000
     15 C09          5.8540    11.0940    26.1860 cc         1 R28      -0.234000
     16 C12          3.1460    13.4550    25.7900 ca         1 R28       0.408900
     17 C14          3.9280    15.9170    25.7890 ca         1 R28       0.292000
     18 C16          6.1130    16.8940    26.3380 ca         1 R28      -0.034000
     19 C19          9.5030    16.0610    27.9690 c3         1 R28      -0.156400
     20 C25          7.0580    19.9230    26.8560 c3         1 R28       0.187800
     21 C29          7.6470    20.2680    29.8860 c3         1 R28       0.148600
     22 C30          4.4580    18.2150    25.1300 ca         1 R28      -0.191000
     23 C31          3.5470    17.1370    25.1740 ca         1 R28       0.085100
     24 C33          1.8080    18.4230    23.9600 c3         1 R28       0.154900
     25 C35          2.1250    11.4280    25.5590 ca         1 R28       0.195900
     26 C36          3.3670    10.7840    25.6950 ca         1 R28      -0.321600
     27 C37          3.4250     9.3050    25.5640 c          1 R28       0.631700
     28 C39          4.6680     7.4610    24.5940 c3         1 R28       0.180300
     29 C40          6.1440     7.2710    24.1990 c3         1 R28      -0.104100
     30 C41          3.6950     7.0000    23.4860 c3         1 R28      -0.104100
     31 C43          6.0800    10.0220    27.0470 cd         1 R28      -0.097100
     32 N02          7.4660     9.9420    27.3030 na         1 R28      -0.080700
     33 N11          4.3690    12.9350    25.9420 nb         1 R28      -0.259000
     34 N13          3.0190    14.8380    25.7720 nu         1 R28      -0.910900
     35 N17          7.4320    16.7750    26.8590 ns         1 R28      -0.153000
     36 N27          6.4080    20.7330    29.2200 n3         1 R28      -0.714600
     37 N34          2.0100    12.7690    25.6030 nb         1 R28      -0.254000
     38 O21          7.3410    15.0980    28.4420 o          1 R28      -0.572100
     39 O32          2.2790    17.2300    24.6130 os         1 R28      -0.358100
     40 O38          4.4840     8.8700    24.8110 os         1 R28      -0.438100
     41 O42          2.5950     8.5710    26.0790 o          1 R28      -0.508000
     42 H1           5.4830    14.9070    26.8860 ha         1 R28       0.182000
     43 H2          10.9510    16.8680    29.3910 hc         1 R28       0.042033
     44 H3           9.4420    17.8000    29.2940 hc         1 R28       0.042033
     45 H4           9.4720    16.2410    30.1500 hc         1 R28       0.042033
     46 H5           7.9460    20.2010    24.2920 h1         1 R28       0.033367
     47 H6           6.7550    19.1480    23.5020 h1         1 R28       0.033367
     48 H7           6.2390    20.7150    24.1820 h1         1 R28       0.033367
     49 H8           5.0810    20.3020    27.6220 h1         1 R28       0.035700
     50 H9           5.8500    18.8850    28.3360 h1         1 R28       0.035700
     51 H10          5.5600    21.5330    31.0060 h1         1 R28       0.031367
     52 H11          4.4020    21.2930    29.6820 h1         1 R28       0.031367
     53 H12          5.0090    19.8910    30.5960 h1         1 R28       0.031367
     54 H13          7.4900     8.2210    28.5240 h1         1 R28       0.050700
     55 H14          8.9870     8.5120    27.5910 h1         1 R28       0.050700
     56 H15          8.6120     9.5220    29.0210 h1         1 R28       0.050700
     57 H16          6.7070    13.4800    24.7260 ha         1 R28       0.130000
     58 H17          9.0940    14.2330    24.7470 ha         1 R28       0.107000
     59 H18         10.8100    12.9260    26.0060 ha         1 R28       0.106000
     60 H19         10.1510    10.8570    27.2520 ha         1 R28       0.111000
     61 H20          9.9520    15.0610    27.9950 hc         1 R28       0.054700
     62 H21          9.9240    16.6350    27.1340 hc         1 R28       0.054700
     63 H22          8.0010    19.4870    27.2110 h1         1 R28       0.058700
     64 H23          7.2660    20.9720    26.6080 h1         1 R28       0.058700
     65 H24          7.8840    20.9030    30.7500 h1         1 R28       0.031367
     66 H25          7.5370    19.2340    30.2400 h1         1 R28       0.031367
     67 H26          8.5060    20.3100    29.2030 h1         1 R28       0.031367
     68 H27          4.1870    19.1550    24.6620 ha         1 R28       0.118000
     69 H28          0.7850    18.2760    23.5940 h1         1 R28       0.040700
     70 H29          1.8010    19.2720    24.6560 h1         1 R28       0.040700
     71 H30          2.4440    18.6750    23.1020 h1         1 R28       0.040700
     72 H31          1.2080    10.8670    25.3860 h4         1 R28       0.038100
     73 H32          4.4820     6.8900    25.5140 h1         1 R28       0.057700
     74 H33          6.8030     7.6230    25.0010 hc         1 R28       0.046200
     75 H34          6.3610     6.2120    24.0200 hc         1 R28       0.046200
     76 H35          6.3800     7.8310    23.2860 hc         1 R28       0.046200
     77 H36          2.6520     7.1020    23.8070 hc         1 R28       0.046200
     78 H37          3.8370     7.5910    22.5730 hc         1 R28       0.046200
     79 H38          3.8680     5.9450    23.2420 hc         1 R28       0.046200
     80 H39          5.3760     9.3430    27.5190 h4         1 R28       0.215000
     81 H40          2.0900    15.1340    25.4700 hn         1 R28       0.528000
     82 H41          8.0850    17.4350    26.4560 hn         1 R28       0.163000
     83 N23          6.6250    19.2000    25.6250 nh         1 R28      -0.791400
     84 C18          7.9850    15.9160    27.7970 c          1 R28       0.600100
@<TRIPOS>BOND
     1     1    15 1   
     2     1    26 ar  
     3     1    33 ar  
     4     2    17 ar  
     5     2    18 ar  
     6     2    42 1   
     7     3    19 1   
     8     3    43 1   
     9     3    44 1   
    10     3    45 1   
    11     4    18 ar  
    12     4    22 ar  
    13     4    83 1   
    14     5    46 1   
    15     5    47 1   
    16     5    48 1   
    17     5    83 1   
    18     6    20 1   
    19     6    36 1   
    20     6    49 1   
    21     6    50 1   
    22     7    36 1   
    23     7    51 1   
    24     7    52 1   
    25     7    53 1   
    26     8    32 1   
    27     8    54 1   
    28     8    55 1   
    29     8    56 1   
    30     9    10 ar  
    31     9    14 ar  
    32     9    32 1   
    33    10    11 ar  
    34    10    15 1   
    35    11    12 ar  
    36    11    57 1   
    37    12    13 ar  
    38    12    58 1   
    39    13    14 ar  
    40    13    59 1   
    41    14    60 1   
    42    15    31 2   
    43    16    33 ar  
    44    16    34 1   
    45    16    37 ar  
    46    17    23 ar  
    47    17    34 1   
    48    18    35 1   
    49    19    61 1   
    50    19    62 1   
    51    19    84 1   
    52    20    63 1   
    53    20    64 1   
    54    20    83 1   
    55    21    36 1   
    56    21    65 1   
    57    21    66 1   
    58    21    67 1   
    59    22    23 ar  
    60    22    68 1   
    61    23    39 1   
    62    24    39 1   
    63    24    69 1   
    64    24    70 1   
    65    24    71 1   
    66    25    26 ar  
    67    25    37 ar  
    68    25    72 1   
    69    26    27 1   
    70    27    40 1   
    71    27    41 2   
    72    28    29 1   
    73    28    30 1   
    74    28    40 1   
    75    28    73 1   
    76    29    74 1   
    77    29    75 1   
    78    29    76 1   
    79    30    77 1   
    80    30    78 1   
    81    30    79 1   
    82    31    32 1   
    83    31    80 1   
    84    34    81 1   
    85    35    82 1   
    86    35    84 1   
    87    38    84 2   
@<TRIPOS>SUBSTRUCTURE
     1 R28         1 TEMP              0 ****  ****    0 ROOT
