@<TRIPOS>MOLECULE
R2A
   94   100     1     0     0
SMALL
No Charge or Current Charge


@<TRIPOS>ATOM
      1 C10          6.5950    21.2620   -28.8250 cc         1 R2A       0.124400
      2 C13          4.5440    23.6890   -30.0570 c          1 R2A       0.726000
      3 C17          7.2360    21.9210   -32.3450 ca         1 R2A      -0.039000
      4 C20          9.5790    21.2030   -32.2690 ca         1 R2A      -0.104000
      5 C21          9.4610    20.9050   -30.8940 ca         1 R2A      -0.117000
      6 C22          8.2240    21.1230   -30.2760 ca         1 R2A       0.067100
      7 C24          4.8420    20.0160   -24.3660 ca         1 R2A      -0.064000
      8 C26          4.1580    17.8850   -19.8440 c6         1 R2A       0.091000
      9 C03          4.1260    19.9490   -23.1500 ca         1 R2A      -0.161600
     10 C04          3.1100    20.9040   -22.9080 ca         1 R2A      -0.095000
     11 C05          2.8490    21.9210   -23.8410 ca         1 R2A      -0.125000
     12 C06          3.5870    21.9910   -25.0350 ca         1 R2A      -0.057000
     13 C07          4.5820    21.0350   -25.3020 ca         1 R2A       0.045000
     14 C08          5.3210    21.0950   -26.5180 ch         1 R2A      -0.113000
     15 C09          5.9390    21.1560   -27.5680 cg         1 R2A      -0.066300
     16 C11          6.0820    21.7030   -30.0360 cd         1 R2A       0.004600
     17 C12          4.6760    22.1840   -30.3210 c3         1 R2A      -0.175200
     18 C16          7.1560    21.6110   -30.9800 ca         1 R2A      -0.103800
     19 C18          8.4720    21.7090   -32.9980 ca         1 R2A      -0.126300
     20 C19          8.6170    22.0310   -34.4770 c3         1 R2A      -0.032800
     21 C27          5.4580    17.8230   -18.9990 c6         1 R2A       0.139800
     22 C29          6.9120    19.0270   -17.4000 c3         1 R2A       0.149800
     23 C30          7.1080    20.2290   -16.4380 c3         1 R2A       0.104000
     24 C32          5.6680    19.6950   -14.4390 c          1 R2A       0.615700
     25 C33          4.3500    19.9800   -13.7460 ca         1 R2A      -0.152600
     26 C34          4.0020    19.2380   -12.5930 ca         1 R2A      -0.051000
     27 C35          2.7860    19.4700   -11.9240 ca         1 R2A       0.055000
     28 C36          2.4490    18.7070   -10.7580 cg         1 R2A      -0.145000
     29 C37          2.1470    18.0620    -9.7670 ch         1 R2A      -0.042300
     30 C38          1.7250    17.3530    -8.6110 cd         1 R2A       0.100400
     31 C39          0.6140    17.5520    -7.7940 cc         1 R2A       0.013600
     32 C40         -0.4740    18.5920    -7.8990 c3         1 R2A      -0.178200
     33 C41         -1.6750    18.0680    -8.6940 c          1 R2A       0.727000
     34 C44          0.7440    16.5070    -6.7910 ca         1 R2A      -0.112800
     35 C45         -0.0740    16.1790    -5.7000 ca         1 R2A      -0.020000
     36 C46          0.3110    15.0890    -4.8820 ca         1 R2A      -0.132300
     37 C47         -0.5480    14.6960    -3.6880 c3         1 R2A      -0.031800
     38 C48          1.4910    14.3560    -5.1770 ca         1 R2A      -0.097000
     39 C49          2.2950    14.7030    -6.2840 ca         1 R2A      -0.127000
     40 C50          1.8830    15.7870    -7.0640 ca         1 R2A       0.072100
     41 C52          1.9000    20.4500   -12.4020 ca         1 R2A      -0.074000
     42 C53          2.2310    21.1950   -13.5450 ca         1 R2A      -0.124000
     43 C54          3.4450    20.9650   -14.2150 ca         1 R2A      -0.098000
     44 C56          5.7520    20.2410   -19.2510 c6         1 R2A       0.139800
     45 C57          4.4680    20.3200   -20.1250 c6         1 R2A       0.091000
     46 N25          4.1640    19.0250   -20.8030 n          1 R2A      -0.399800
     47 N28          5.7120    19.1050   -18.2800 n3         1 R2A      -0.741600
     48 N31          5.9510    20.4440   -15.5590 ns         1 R2A      -0.501900
     49 O01          4.7840    17.7290   -22.5930 o          1 R2A      -0.601100
     50 O14          4.8320    24.4580   -30.9620 o          1 R2A      -0.721500
     51 O15          4.2770    24.0530   -28.9220 o          1 R2A      -0.721500
     52 O23          7.9330    20.8920   -28.9490 os         1 R2A      -0.174200
     53 O42         -1.6520    18.1800    -9.9110 o          1 R2A      -0.716500
     54 O43         -2.5400    17.4530    -8.0890 o          1 R2A      -0.716500
     55 O51          2.4830    16.2980    -8.1690 os         1 R2A      -0.177200
     56 O55          6.4510    18.8480   -14.0280 o          1 R2A      -0.619100
     57 H171         6.3750    22.3150   -32.8810 ha         1 R2A       0.120000
     58 H201        10.5310    21.0430   -32.7700 ha         1 R2A       0.095000
     59 H211        10.3050    20.5180   -30.3290 ha         1 R2A       0.117000
     60 H241         5.6130    19.2780   -24.5810 ha         1 R2A       0.124000
     61 H261         3.3010    18.0020   -19.1650 h1         1 R2A       0.065950
     62 H262         4.0180    16.9310   -20.3710 h1         1 R2A       0.065950
     63 H041         2.5070    20.8520   -22.0040 ha         1 R2A       0.109000
     64 H051         2.0690    22.6530   -23.6430 ha         1 R2A       0.116000
     65 H061         3.3800    22.7800   -25.7560 ha         1 R2A       0.169000
     66 H121         4.4780    21.9740   -31.3790 hc         1 R2A       0.037700
     67 H122         4.0080    21.6310   -29.6510 hc         1 R2A       0.037700
     68 H193         8.9770    23.0570   -34.6190 hc         1 R2A       0.029700
     69 H192         9.3300    21.3550   -34.9650 hc         1 R2A       0.029700
     70 H191         7.6600    21.9360   -35.0040 hc         1 R2A       0.029700
     71 H271         5.3700    16.9940   -18.2820 h1         1 R2A       0.043450
     72 H272         6.3010    17.5860   -19.6650 h1         1 R2A       0.043450
     73 H291         6.8490    18.1210   -16.7810 h1         1 R2A       0.041700
     74 H292         7.8180    18.9260   -18.0120 h1         1 R2A       0.041700
     75 H302         7.9990    20.0540   -15.8210 h1         1 R2A       0.050200
     76 H301         7.2850    21.1440   -17.0170 h1         1 R2A       0.050200
     77 H341         4.6770    18.4750   -12.2110 ha         1 R2A       0.139000
     78 H402        -0.7790    18.8260    -6.8730 hc         1 R2A       0.038700
     79 H401        -0.0330    19.4520    -8.4180 hc         1 R2A       0.038700
     80 H451        -0.9790    16.7460    -5.4920 ha         1 R2A       0.142000
     81 H473         0.0620    14.2790    -2.8780 hc         1 R2A       0.030367
     82 H471        -1.0890    15.5590    -3.2820 hc         1 R2A       0.030367
     83 H472        -1.2890    13.9390    -3.9730 hc         1 R2A       0.030367
     84 H481         1.7810    13.5160    -4.5490 ha         1 R2A       0.093000
     85 H491         3.2000    14.1500    -6.5230 ha         1 R2A       0.115000
     86 H521         0.9580    20.6340   -11.8900 ha         1 R2A       0.130000
     87 H531         1.5440    21.9540   -13.9140 ha         1 R2A       0.110000
     88 H541         3.6650    21.5620   -15.0960 ha         1 R2A       0.106000
     89 H562         6.6220    20.1370   -19.9170 h1         1 R2A       0.043450
     90 H561         5.8640    21.2000   -18.7250 h1         1 R2A       0.043450
     91 H571         4.6080    21.1280   -20.8540 h1         1 R2A       0.065950
     92 H572         3.6160    20.5960   -19.4880 h1         1 R2A       0.065950
     93 H311         5.2390    21.0930   -15.8610 hn         1 R2A       0.337500
     94 C02          4.4180    18.8230   -22.1790 c          1 R2A       0.615700
@<TRIPOS>BOND
     1     1    15 1   
     2     1    16 2   
     3     1    52 1   
     4     2    17 1   
     5     2    50 1   
     6     2    51 1   
     7     3    18 ar  
     8     3    19 ar  
     9     3    57 1   
    10     4     5 ar  
    11     4    19 ar  
    12     4    58 1   
    13     5     6 ar  
    14     5    59 1   
    15     6    18 ar  
    16     6    52 1   
    17     7     9 ar  
    18     7    13 ar  
    19     7    60 1   
    20     8    21 1   
    21     8    46 1   
    22     8    61 1   
    23     8    62 1   
    24     9    10 ar  
    25     9    94 1   
    26    10    11 ar  
    27    10    63 1   
    28    11    12 ar  
    29    11    64 1   
    30    12    13 ar  
    31    12    65 1   
    32    13    14 1   
    33    14    15 3   
    34    16    17 1   
    35    16    18 1   
    36    17    66 1   
    37    17    67 1   
    38    19    20 1   
    39    20    68 1   
    40    20    69 1   
    41    20    70 1   
    42    21    47 1   
    43    21    71 1   
    44    21    72 1   
    45    22    23 1   
    46    22    47 1   
    47    22    73 1   
    48    22    74 1   
    49    23    48 1   
    50    23    75 1   
    51    23    76 1   
    52    24    25 1   
    53    24    48 1   
    54    24    56 2   
    55    25    26 ar  
    56    25    43 ar  
    57    26    27 ar  
    58    26    77 1   
    59    27    28 1   
    60    27    41 ar  
    61    28    29 3   
    62    29    30 1   
    63    30    31 2   
    64    30    55 1   
    65    31    32 1   
    66    31    34 1   
    67    32    33 1   
    68    32    78 1   
    69    32    79 1   
    70    33    53 1   
    71    33    54 1   
    72    34    35 ar  
    73    34    40 ar  
    74    35    36 ar  
    75    35    80 1   
    76    36    37 1   
    77    36    38 ar  
    78    37    81 1   
    79    37    82 1   
    80    37    83 1   
    81    38    39 ar  
    82    38    84 1   
    83    39    40 ar  
    84    39    85 1   
    85    40    55 1   
    86    41    42 ar  
    87    41    86 1   
    88    42    43 ar  
    89    42    87 1   
    90    43    88 1   
    91    44    45 1   
    92    44    47 1   
    93    44    89 1   
    94    44    90 1   
    95    45    46 1   
    96    45    91 1   
    97    45    92 1   
    98    46    94 1   
    99    48    93 1   
   100    49    94 2   
@<TRIPOS>SUBSTRUCTURE
     1 R2A         1 TEMP              0 ****  ****    0 ROOT
