@<TRIPOS>MOLECULE
R2A
   94   100     1     0     0
SMALL
abcg2


@<TRIPOS>ATOM
      1 C10          6.8860    21.3830   -28.3000 cc         1 R2A       0.124400
      2 C13          5.1720    24.0840   -28.6470 c          1 R2A       0.726000
      3 C17          8.3990    22.6070   -31.3320 ca         1 R2A      -0.039000
      4 C20         10.4460    21.3680   -31.0210 ca         1 R2A      -0.104000
      5 C21         10.0040    20.8170   -29.8320 ca         1 R2A      -0.117000
      6 C22          8.7380    21.1870   -29.4130 ca         1 R2A       0.067100
      7 C24          4.0830    19.8950   -24.5040 ca         1 R2A      -0.064000
      8 C26          2.8600    17.6400   -20.4570 c6         1 R2A       0.091000
      9 C03          3.0990    19.8470   -23.5280 ca         1 R2A      -0.161600
     10 C04          2.1520    20.8640   -23.4470 ca         1 R2A      -0.095000
     11 C05          2.1930    21.9240   -24.3430 ca         1 R2A      -0.125000
     12 C06          3.1820    21.9880   -25.3080 ca         1 R2A      -0.057000
     13 C07          4.1430    20.9730   -25.3890 ca         1 R2A       0.045000
     14 C08          5.1570    21.0480   -26.3790 ch         1 R2A      -0.113000
     15 C09          6.0030    21.1560   -27.2360 cg         1 R2A      -0.066300
     16 C11          6.7090    22.1840   -29.3870 cd         1 R2A       0.004600
     17 C12          5.4860    22.9720   -29.6900 c3         1 R2A      -0.175200
     18 C16          7.9260    22.0640   -30.1340 ca         1 R2A      -0.103800
     19 C18          9.6620    22.2590   -31.7800 ca         1 R2A      -0.126300
     20 C19         10.2100    22.8170   -33.0630 c3         1 R2A      -0.032800
     21 C27          4.2100    17.3080   -19.8470 c6         1 R2A       0.139800
     22 C29          5.9550    18.1680   -18.4130 c3         1 R2A       0.149800
     23 C30          6.1790    19.1380   -17.2610 c3         1 R2A       0.104000
     24 C32          4.9880    19.4440   -15.1320 c          1 R2A       0.615700
     25 C33          3.6430    19.4620   -14.4700 ca         1 R2A      -0.152600
     26 C34          3.5760    19.1090   -13.1280 ca         1 R2A      -0.051000
     27 C35          2.3530    19.1080   -12.4550 ca         1 R2A       0.055000
     28 C36          2.2850    18.7130   -11.0920 cg         1 R2A      -0.145000
     29 C37          2.2140    18.3640    -9.9370 ch         1 R2A      -0.042300
     30 C38          2.1070    17.9530    -8.6000 cd         1 R2A       0.100400
     31 C39          1.0070    17.6900    -7.8420 cc         1 R2A       0.013600
     32 C40         -0.4190    17.7320    -8.2420 c3         1 R2A      -0.178200
     33 C41         -0.9410    16.2840    -8.4900 c          1 R2A       0.727000
     34 C44          1.5220    17.2750    -6.5690 ca         1 R2A      -0.112800
     35 C45          0.9370    16.8520    -5.3730 ca         1 R2A      -0.020000
     36 C46          1.7540    16.5100    -4.3080 ca         1 R2A      -0.132300
     37 C47          1.1720    16.0430    -3.0040 c3         1 R2A      -0.031800
     38 C48          3.1520    16.5920    -4.4550 ca         1 R2A      -0.097000
     39 C49          3.7560    17.0020    -5.6300 ca         1 R2A      -0.127000
     40 C50          2.9100    17.3360    -6.6750 ca         1 R2A       0.072100
     41 C52          1.1930    19.4950   -13.1350 ca         1 R2A      -0.074000
     42 C53          1.2660    19.8690   -14.4650 ca         1 R2A      -0.124000
     43 C54          2.4820    19.8490   -15.1360 ca         1 R2A      -0.098000
     44 C56          4.8480    19.6100   -20.0060 c6         1 R2A       0.139800
     45 C57          3.5090    19.9530   -20.6420 c6         1 R2A       0.091000
     46 N25          2.9740    18.7930   -21.3340 n          1 R2A      -0.399800
     47 N28          4.7270    18.4590   -19.1290 n3         1 R2A      -0.741600
     48 N31          4.9880    19.1860   -16.4460 ns         1 R2A      -0.501900
     49 O01          2.9090    17.5280   -23.2140 o          1 R2A      -0.601100
     50 O14          6.1480    24.6550   -28.1320 o          1 R2A      -0.721500
     51 O15          3.9630    24.3170   -28.4520 o          1 R2A      -0.721500
     52 O23          8.1090    20.7720   -28.2940 os         1 R2A      -0.174200
     53 O42         -0.4300    15.6930    -9.4580 o          1 R2A      -0.716500
     54 O43         -1.7960    15.8530    -7.6960 o          1 R2A      -0.716500
     55 O51          3.2720    17.7480    -7.9060 os         1 R2A      -0.177200
     56 O55          6.0070    19.6390   -14.4830 o          1 R2A      -0.619100
     57 H171         7.7840    23.2900   -31.9060 ha         1 R2A       0.120000
     58 H201        11.4330    21.1040   -31.3830 ha         1 R2A       0.095000
     59 H211        10.6200    20.1330   -29.2620 ha         1 R2A       0.117000
     60 H241         4.8150    19.1010   -24.5820 ha         1 R2A       0.124000
     61 H261         2.1470    17.8840   -19.6640 h1         1 R2A       0.065950
     62 H262         2.4700    16.7900   -21.0090 h1         1 R2A       0.065950
     63 H041         1.3750    20.8260   -22.6930 ha         1 R2A       0.109000
     64 H051         1.4480    22.7060   -24.2860 ha         1 R2A       0.116000
     65 H061         3.2170    22.8140   -26.0070 ha         1 R2A       0.169000
     66 H121         5.6040    23.4550   -30.6650 hc         1 R2A       0.037700
     67 H122         4.6280    22.3040   -29.7870 hc         1 R2A       0.037700
     68 H193        11.1510    23.3440   -32.8970 hc         1 R2A       0.029700
     69 H192        10.4120    22.0240   -33.7860 hc         1 R2A       0.029700
     70 H191         9.5140    23.5160   -33.5230 hc         1 R2A       0.029700
     71 H271         4.0910    16.4770   -19.1490 h1         1 R2A       0.043450
     72 H272         4.8930    16.9730   -20.6440 h1         1 R2A       0.043450
     73 H291         5.8760    17.1600   -18.0020 h1         1 R2A       0.041700
     74 H292         6.8390    18.1770   -19.0680 h1         1 R2A       0.041700
     75 H302         7.0240    18.7910   -16.6660 h1         1 R2A       0.050200
     76 H301         6.4380    20.1360   -17.6270 h1         1 R2A       0.050200
     77 H341         4.4750    18.8190   -12.6000 ha         1 R2A       0.139000
     78 H402        -1.0020    18.2250    -7.4620 hc         1 R2A       0.038700
     79 H401        -0.5270    18.3190    -9.1580 hc         1 R2A       0.038700
     80 H451        -0.1410    16.7850    -5.2840 ha         1 R2A       0.142000
     81 H473         1.4690    16.6930    -2.1800 hc         1 R2A       0.030367
     82 H471         0.0840    16.0250    -3.0370 hc         1 R2A       0.030367
     83 H472         1.5140    15.0370    -2.7560 hc         1 R2A       0.030367
     84 H481         3.7800    16.3210    -3.6140 ha         1 R2A       0.093000
     85 H491         4.8330    17.0530    -5.7240 ha         1 R2A       0.115000
     86 H521         0.2440    19.5040   -12.6160 ha         1 R2A       0.130000
     87 H531         0.3700    20.1810   -14.9850 ha         1 R2A       0.110000
     88 H541         2.5110    20.1630   -16.1710 ha         1 R2A       0.106000
     89 H562         5.5910    19.4330   -20.8010 h1         1 R2A       0.043450
     90 H561         5.1870    20.4760   -19.4350 h1         1 R2A       0.043450
     91 H571         3.6380    20.7880   -21.3260 h1         1 R2A       0.065950
     92 H572         2.8010    20.2610   -19.8690 h1         1 R2A       0.065950
     93 H311         4.1280    18.9940   -16.9390 hn         1 R2A       0.337500
     94 C02          3.0020    18.6210   -22.6720 c          1 R2A       0.615700
@<TRIPOS>BOND
     1     1    15 1   
     2     1    16 2   
     3     1    52 1   
     4     2    17 1   
     5     2    50 1   
     6     2    51 1   
     7     3    18 ar  
     8     3    19 ar  
     9     3    57 1   
    10     4     5 ar  
    11     4    19 ar  
    12     4    58 1   
    13     5     6 ar  
    14     5    59 1   
    15     6    18 ar  
    16     6    52 1   
    17     7     9 ar  
    18     7    13 ar  
    19     7    60 1   
    20     8    21 1   
    21     8    46 1   
    22     8    61 1   
    23     8    62 1   
    24     9    10 ar  
    25     9    94 1   
    26    10    11 ar  
    27    10    63 1   
    28    11    12 ar  
    29    11    64 1   
    30    12    13 ar  
    31    12    65 1   
    32    13    14 1   
    33    14    15 3   
    34    16    17 1   
    35    16    18 1   
    36    17    66 1   
    37    17    67 1   
    38    19    20 1   
    39    20    68 1   
    40    20    69 1   
    41    20    70 1   
    42    21    47 1   
    43    21    71 1   
    44    21    72 1   
    45    22    23 1   
    46    22    47 1   
    47    22    73 1   
    48    22    74 1   
    49    23    48 1   
    50    23    75 1   
    51    23    76 1   
    52    24    25 1   
    53    24    48 1   
    54    24    56 2   
    55    25    26 ar  
    56    25    43 ar  
    57    26    27 ar  
    58    26    77 1   
    59    27    28 1   
    60    27    41 ar  
    61    28    29 3   
    62    29    30 1   
    63    30    31 2   
    64    30    55 1   
    65    31    32 1   
    66    31    34 1   
    67    32    33 1   
    68    32    78 1   
    69    32    79 1   
    70    33    53 1   
    71    33    54 1   
    72    34    35 ar  
    73    34    40 ar  
    74    35    36 ar  
    75    35    80 1   
    76    36    37 1   
    77    36    38 ar  
    78    37    81 1   
    79    37    82 1   
    80    37    83 1   
    81    38    39 ar  
    82    38    84 1   
    83    39    40 ar  
    84    39    85 1   
    85    40    55 1   
    86    41    42 ar  
    87    41    86 1   
    88    42    43 ar  
    89    42    87 1   
    90    43    88 1   
    91    44    45 1   
    92    44    47 1   
    93    44    89 1   
    94    44    90 1   
    95    45    46 1   
    96    45    91 1   
    97    45    92 1   
    98    46    94 1   
    99    48    93 1   
   100    49    94 2   
@<TRIPOS>SUBSTRUCTURE
     1 R2A         1 TEMP              0 ****  ****    0 ROOT
