@<TRIPOS>MOLECULE
R2C
   41    43     1     0     0
SMALL
No Charge or Current Charge


@<TRIPOS>ATOM
      1 C1           4.9280    -0.3720    -0.5020 ca         1 R2C      -0.086000
      2 C2           5.0520     0.9770    -0.1340 ca         1 R2C       0.070100
      3 C3           3.8910     1.7480     0.0740 ca         1 R2C      -0.182000
      4 C4           2.6260     1.1560    -0.0770 ca         1 R2C      -0.160000
      5 C5           2.4970    -0.2030    -0.4240 ca         1 R2C       0.290000
      6 C6           3.6580    -0.9780    -0.6630 ca         1 R2C      -0.156600
      7 C7           3.5820    -2.4340    -1.0740 c          1 R2C       0.719600
      8 O8           4.5200    -3.1640    -0.7840 o          1 R2C      -0.707000
      9 O9           2.6070    -2.8260    -1.7050 o          1 R2C      -0.707000
     10 O10          6.3230     1.4980    -0.0010 os         1 R2C      -0.347100
     11 C11          6.5560     2.8680     0.3710 c3         1 R2C       0.156900
     12 N12          1.2310    -0.7700    -0.5740 nu         1 R2C      -0.983000
     13 C13         -0.0430    -0.4800    -0.0960 ca         1 R2C       0.365000
     14 C14         -0.2420     0.2380     1.0980 ca         1 R2C      -0.187000
     15 C15         -1.5430     0.4960     1.5650 ca         1 R2C      -0.077000
     16 C16         -2.6540     0.0340     0.8390 ca         1 R2C      -0.002900
     17 C17         -2.4600    -0.7130    -0.3390 ca         1 R2C      -0.077000
     18 C18         -1.1550    -0.9680    -0.8000 ca         1 R2C      -0.187000
     19 O19         -3.9190     0.2860     1.3230 os         1 R2C      -0.247200
     20 C20         -4.9920     0.5700     0.5080 ca         1 R2C       0.150100
     21 C21         -4.8440     1.3750    -0.6390 ca         1 R2C      -0.167000
     22 C22         -5.9580     1.6620    -1.4460 ca         1 R2C      -0.083000
     23 C23         -7.2230     1.1520    -1.1020 ca         1 R2C      -0.161000
     24 C24         -7.3750     0.3600     0.0490 ca         1 R2C      -0.083000
     25 C25         -6.2600     0.0740     0.8550 ca         1 R2C      -0.167000
     26 H1           5.8330    -0.9500    -0.6730 ha         1 R2C       0.145000
     27 H3           3.9480     2.7980     0.3450 ha         1 R2C       0.093000
     28 H4           1.7430     1.7720     0.0610 ha         1 R2C       0.100000
     29 H111         7.6330     3.0700     0.4210 h1         1 R2C       0.024700
     30 H112         6.1150     3.5520    -0.3660 h1         1 R2C       0.024700
     31 H113         6.1220     3.0840     1.3560 h1         1 R2C       0.024700
     32 HN12         1.2840    -1.6410    -1.1220 hn         1 R2C       0.566000
     33 H14          0.6090     0.5790     1.6790 ha         1 R2C       0.124500
     34 H15         -1.6900     1.0500     2.4890 ha         1 R2C       0.111000
     35 H17         -3.3120    -1.1000    -0.8940 ha         1 R2C       0.111000
     36 H18         -1.0120    -1.5420    -1.7110 ha         1 R2C       0.124500
     37 H21         -3.8700     1.7800    -0.9020 ha         1 R2C       0.128000
     38 H22         -5.8440     2.2810    -2.3340 ha         1 R2C       0.103500
     39 H23         -8.0850     1.3750    -1.7260 ha         1 R2C       0.104000
     40 H24         -8.3560    -0.0290     0.3160 ha         1 R2C       0.103500
     41 H25         -6.3750    -0.5370     1.7470 ha         1 R2C       0.128000
@<TRIPOS>BOND
     1     1     2 ar  
     2     1     6 ar  
     3     1    26 1   
     4     2     3 ar  
     5     2    10 1   
     6     3     4 ar  
     7     3    27 1   
     8     4     5 ar  
     9     4    28 1   
    10     5     6 ar  
    11     5    12 1   
    12     6     7 1   
    13     7     8 1   
    14     7     9 1   
    15    10    11 1   
    16    11    29 1   
    17    11    30 1   
    18    11    31 1   
    19    12    13 1   
    20    12    32 1   
    21    13    14 ar  
    22    13    18 ar  
    23    14    15 ar  
    24    14    33 1   
    25    15    16 ar  
    26    15    34 1   
    27    16    17 ar  
    28    16    19 1   
    29    17    18 ar  
    30    17    35 1   
    31    18    36 1   
    32    19    20 1   
    33    20    21 ar  
    34    20    25 ar  
    35    21    22 ar  
    36    21    37 1   
    37    22    23 ar  
    38    22    38 1   
    39    23    24 ar  
    40    23    39 1   
    41    24    25 ar  
    42    24    40 1   
    43    25    41 1   
@<TRIPOS>SUBSTRUCTURE
     1 R2C         1 TEMP              0 ****  ****    0 ROOT
