@<TRIPOS>MOLECULE
R2C
   41    43     1     0     0
SMALL
abcg2


@<TRIPOS>ATOM
      1 C1           4.8100    -0.2330    -0.2780 ca         1 R2C      -0.086000
      2 C2           4.8030     1.1380    -0.0440 ca         1 R2C       0.070100
      3 C3           3.5870     1.8110    -0.0720 ca         1 R2C      -0.182000
      4 C4           2.4140     1.1120    -0.3180 ca         1 R2C      -0.160000
      5 C5           2.4080    -0.2680    -0.5260 ca         1 R2C       0.290000
      6 C6           3.6470    -0.9510    -0.5210 ca         1 R2C      -0.156600
      7 C7           3.7790    -2.4430    -0.8040 c          1 R2C       0.719600
      8 O8           4.8800    -2.9690    -0.5850 o          1 R2C      -0.707000
      9 O9           2.7670    -3.0370    -1.2590 o          1 R2C      -0.707000
     10 O10          6.0030     1.7230     0.1880 os         1 R2C      -0.347100
     11 C11          6.0340     3.1210     0.3680 c3         1 R2C       0.156900
     12 N12          1.2460    -0.9700    -0.8060 nu         1 R2C      -0.983000
     13 C13         -0.0210    -0.7680    -0.3030 ca         1 R2C       0.365000
     14 C14         -0.3380     0.1010     0.7470 ca         1 R2C      -0.187000
     15 C15         -1.6450     0.2250     1.1980 ca         1 R2C      -0.077000
     16 C16         -2.6570    -0.5280     0.6310 ca         1 R2C      -0.002900
     17 C17         -2.3630    -1.4120    -0.3980 ca         1 R2C      -0.077000
     18 C18         -1.0660    -1.5230    -0.8610 ca         1 R2C      -0.187000
     19 O19         -3.9420    -0.4290     1.1170 os         1 R2C      -0.247200
     20 C20         -4.8400     0.3500     0.4560 ca         1 R2C       0.150100
     21 C21         -4.5180     1.1460    -0.6390 ca         1 R2C      -0.167000
     22 C22         -5.5110     1.9110    -1.2400 ca         1 R2C      -0.083000
     23 C23         -6.8130     1.8940    -0.7630 ca         1 R2C      -0.161000
     24 C24         -7.1220     1.0960     0.3320 ca         1 R2C      -0.083000
     25 C25         -6.1460     0.3260     0.9420 ca         1 R2C      -0.167000
     26 H1           5.7530    -0.7650    -0.2690 ha         1 R2C       0.145000
     27 H3           3.5240     2.8800     0.0800 ha         1 R2C       0.093000
     28 H4           1.4910     1.6730    -0.3700 ha         1 R2C       0.100000
     29 H111         7.0760     3.3930     0.5210 h1         1 R2C       0.024700
     30 H112         5.6590     3.6580    -0.5080 h1         1 R2C       0.024700
     31 H113         5.4600     3.4390     1.2430 h1         1 R2C       0.024700
     32 HN12         1.4760    -1.9100    -1.1470 hn         1 R2C       0.566000
     33 H14          0.4300     0.6780     1.2410 ha         1 R2C       0.124500
     34 H15         -1.8630     0.9030     2.0140 ha         1 R2C       0.111000
     35 H17         -3.1450    -2.0130    -0.8450 ha         1 R2C       0.111000
     36 H18         -0.8520    -2.2100    -1.6720 ha         1 R2C       0.124500
     37 H21         -3.5090     1.1800    -1.0270 ha         1 R2C       0.128000
     38 H22         -5.2540     2.5270    -2.0920 ha         1 R2C       0.103500
     39 H23         -7.5770     2.4950    -1.2370 ha         1 R2C       0.104000
     40 H24         -8.1330     1.0700     0.7170 ha         1 R2C       0.103500
     41 H25         -6.3880    -0.2940     1.7960 ha         1 R2C       0.128000
@<TRIPOS>BOND
     1     1     2 ar  
     2     1     6 ar  
     3     1    26 1   
     4     2     3 ar  
     5     2    10 1   
     6     3     4 ar  
     7     3    27 1   
     8     4     5 ar  
     9     4    28 1   
    10     5     6 ar  
    11     5    12 1   
    12     6     7 1   
    13     7     8 1   
    14     7     9 1   
    15    10    11 1   
    16    11    29 1   
    17    11    30 1   
    18    11    31 1   
    19    12    13 1   
    20    12    32 1   
    21    13    14 ar  
    22    13    18 ar  
    23    14    15 ar  
    24    14    33 1   
    25    15    16 ar  
    26    15    34 1   
    27    16    17 ar  
    28    16    19 1   
    29    17    18 ar  
    30    17    35 1   
    31    18    36 1   
    32    19    20 1   
    33    20    21 ar  
    34    20    25 ar  
    35    21    22 ar  
    36    21    37 1   
    37    22    23 ar  
    38    22    38 1   
    39    23    24 ar  
    40    23    39 1   
    41    24    25 ar  
    42    24    40 1   
    43    25    41 1   
@<TRIPOS>SUBSTRUCTURE
     1 R2C         1 TEMP              0 ****  ****    0 ROOT
