@<TRIPOS>MOLECULE
R2D
   33    36     1     0     0
SMALL
No Charge or Current Charge


@<TRIPOS>ATOM
      1 C1          -2.8540   -19.4210   -35.9950 cc         1 R2D      -0.125000
      2 C2          -4.9460   -19.9330   -36.4610 ca         1 R2D      -0.073200
      3 C3          -2.7300   -20.9560   -34.0660 cc         1 R2D      -0.060300
      4 C4          -5.2630   -20.9840   -33.5590 ca         1 R2D      -0.003000
      5 C6          -4.2300   -19.6400   -37.6040 ca         1 R2D       0.085400
      6 C7          -6.2990   -20.3260   -36.5230 ca         1 R2D      -0.089000
      7 C8          -2.1690   -21.7800   -32.9220 c3         1 R2D      -0.186100
      8 C9          -6.2760   -20.0330   -33.3070 ca         1 R2D      -0.077000
      9 C10         -5.4170   -22.2880   -33.0440 ca         1 R2D      -0.077000
     10 C11         -4.8250   -19.7150   -38.8720 ca         1 R2D      -0.072000
     11 C15         -6.5620   -22.6370   -32.3050 ca         1 R2D      -0.118500
     12 C16         -6.1800   -20.0920   -38.9600 ca         1 R2D      -0.136000
     13 O17         -2.3000   -24.0860   -33.4670 o          1 R2D      -0.711000
     14 C18         -7.5620   -21.6830   -32.0660 ca         1 R2D       0.118000
     15 N           -4.0570   -19.7270   -35.4250 na         1 R2D       0.101200
     16 C           -4.0590   -20.5770   -34.3180 cd         1 R2D      -0.111000
     17 S           -1.5460   -20.1770   -35.1510 ss         1 R2D       0.203000
     18 N5          -2.8910   -19.3520   -37.3320 nd         1 R2D      -0.293400
     19 C12         -6.9100   -20.4000   -37.7910 ca         1 R2D      -0.127000
     20 C13         -1.5660   -23.1130   -33.3930 c          1 R2D       0.728000
     21 C14         -7.4200   -20.3800   -32.5670 ca         1 R2D      -0.118500
     22 O           -0.4080   -23.1110   -33.7860 o          1 R2D      -0.711000
     23 Cl          -8.9930   -22.1190   -31.1420 cl         1 R2D      -0.232000
     24 H1          -6.8810   -20.5750   -35.6450 ha         1 R2D       0.124000
     25 H2          -1.3710   -21.1680   -32.4860 hc         1 R2D       0.049200
     26 H3          -2.9730   -21.9650   -32.2040 hc         1 R2D       0.049200
     27 H4          -6.1710   -19.0160   -33.6790 ha         1 R2D       0.148000
     28 H5          -4.6700   -23.0490   -33.2460 ha         1 R2D       0.148000
     29 H6          -4.2480   -19.4950   -39.7660 ha         1 R2D       0.118000
     30 H7          -6.6750   -23.6480   -31.9230 ha         1 R2D       0.123500
     31 H8          -6.6610   -20.1570   -39.9330 ha         1 R2D       0.099000
     32 H9          -7.9530   -20.6990   -37.8690 ha         1 R2D       0.101000
     33 H10         -8.1940   -19.6400   -32.3790 ha         1 R2D       0.123500
@<TRIPOS>BOND
     1     1    15 1   
     2     1    17 1   
     3     1    18 2   
     4     2     5 ar  
     5     2     6 ar  
     6     2    15 1   
     7     3     7 1   
     8     3    16 2   
     9     3    17 1   
    10     4     8 ar  
    11     4     9 ar  
    12     4    16 1   
    13     5    10 ar  
    14     5    18 1   
    15     6    19 ar  
    16     6    24 1   
    17     7    20 1   
    18     7    25 1   
    19     7    26 1   
    20     8    21 ar  
    21     8    27 1   
    22     9    11 ar  
    23     9    28 1   
    24    10    12 ar  
    25    10    29 1   
    26    11    14 ar  
    27    11    30 1   
    28    12    19 ar  
    29    12    31 1   
    30    13    20 1   
    31    14    21 ar  
    32    14    23 1   
    33    15    16 1   
    34    19    32 1   
    35    20    22 1   
    36    21    33 1   
@<TRIPOS>SUBSTRUCTURE
     1 R2D         1 TEMP              0 ****  ****    0 ROOT
