@<TRIPOS>MOLECULE
R2D
   33    36     1     0     0
SMALL
bcc


@<TRIPOS>ATOM
      1 C1          -2.9130   -20.1880   -36.4340 cc         1 R2D       0.070600
      2 C2          -5.0890   -20.2330   -36.7170 ca         1 R2D      -0.073200
      3 C3          -2.6610   -20.9960   -34.1080 cc         1 R2D       0.084600
      4 C4          -5.1190   -21.2040   -33.6400 ca         1 R2D      -0.003000
      5 C6          -4.3970   -19.8060   -37.8720 ca         1 R2D       0.085400
      6 C7          -6.4720   -20.3690   -36.6900 ca         1 R2D      -0.107000
      7 C8          -2.0900   -21.4170   -32.8060 c3         1 R2D      -0.186100
      8 C9          -6.0800   -20.2290   -33.3800 ca         1 R2D      -0.095000
      9 C10         -5.2580   -22.4650   -33.0650 ca         1 R2D      -0.095000
     10 C11         -5.1110   -19.4830   -39.0260 ca         1 R2D      -0.090000
     11 C15         -6.3400   -22.7530   -32.2470 ca         1 R2D      -0.136500
     12 C16         -6.4880   -19.6070   -38.9980 ca         1 R2D      -0.154000
     13 O17         -2.0060   -23.6610   -33.6410 o          1 R2D      -0.816300
     14 C18         -7.2880   -21.7700   -32.0100 ca         1 R2D       0.026400
     15 N           -4.0890   -20.4580   -35.7920 na         1 R2D      -0.000200
     16 C           -3.9530   -20.9070   -34.4790 cd         1 R2D      -0.060300
     17 S           -1.5720   -20.5090   -35.3990 ss         1 R2D      -0.086800
     18 N5          -3.0350   -19.7910   -37.6650 nd         1 R2D      -0.293400
     19 C12         -7.1580   -20.0470   -37.8490 ca         1 R2D      -0.145000
     20 C13         -1.6000   -22.8950   -32.7490 c          1 R2D       0.938600
     21 C14         -7.1690   -20.5070   -32.5700 ca         1 R2D      -0.136500
     22 O           -0.8690   -23.1650   -31.7820 o          1 R2D      -0.816300
     23 CL          -8.6440   -22.1230   -30.9940 cl         1 R2D      -0.140400
     24 H1          -7.0010   -20.7160   -35.8140 ha         1 R2D       0.142000
     25 H2          -1.2710   -20.7520   -32.5220 hc         1 R2D       0.049200
     26 H3          -2.8530   -21.2920   -32.0320 hc         1 R2D       0.049200
     27 H4          -5.9800   -19.2370   -33.8040 ha         1 R2D       0.166000
     28 H5          -4.5120   -23.2250   -33.2590 ha         1 R2D       0.166000
     29 H6          -4.5940   -19.1510   -39.9160 ha         1 R2D       0.136000
     30 H7          -6.4410   -23.7350   -31.8050 ha         1 R2D       0.141500
     31 H8          -7.0620   -19.3630   -39.8830 ha         1 R2D       0.117000
     32 H9          -8.2350   -20.1410   -37.8660 ha         1 R2D       0.119000
     33 H10         -7.9100   -19.7440   -32.3730 ha         1 R2D       0.141500
@<TRIPOS>BOND
     1     1    15 1   
     2     1    17 1   
     3     1    18 2   
     4     2     5 ar  
     5     2     6 ar  
     6     2    15 1   
     7     3     7 1   
     8     3    16 2   
     9     3    17 1   
    10     4     8 ar  
    11     4     9 ar  
    12     4    16 1   
    13     5    10 ar  
    14     5    18 1   
    15     6    19 ar  
    16     6    24 1   
    17     7    20 1   
    18     7    25 1   
    19     7    26 1   
    20     8    21 ar  
    21     8    27 1   
    22     9    11 ar  
    23     9    28 1   
    24    10    12 ar  
    25    10    29 1   
    26    11    14 ar  
    27    11    30 1   
    28    12    19 ar  
    29    12    31 1   
    30    13    20 1   
    31    14    21 ar  
    32    14    23 1   
    33    15    16 1   
    34    19    32 1   
    35    20    22 1   
    36    21    33 1   
@<TRIPOS>SUBSTRUCTURE
     1 R2D         1 TEMP              0 ****  ****    0 ROOT
