@<TRIPOS>MOLECULE
R2E
   56    59     1     0     0
SMALL
No Charge or Current Charge


@<TRIPOS>ATOM
      1 C4         -41.8360    11.5680    -1.2070 ca         1 R2E       0.065000
      2 C5         -43.0080    10.7740    -1.1880 ca         1 R2E      -0.162000
      3 C6         -42.8400     9.3670    -1.2200 ca         1 R2E       0.395900
      4 N1         -41.6210     8.8050    -1.2850 nb         1 R2E      -0.259000
      5 N3         -40.6170    10.9910    -1.2590 nb         1 R2E      -0.198000
      6 C2         -40.5700     9.6450    -1.2950 ca         1 R2E       0.163900
      7 CAA        -49.3520    13.7280    -5.9850 c3         1 R2E      -0.087100
      8 CAB        -50.3980    13.0490    -5.0720 c3         1 R2E      -0.157400
      9 CAC        -50.2580    13.5070    -3.6090 c          1 R2E       0.609100
     10 CAF        -49.3920    13.0980    -1.2600 c6         1 R2E       0.098500
     11 CAG        -48.0280    13.7300    -0.9050 c6         1 R2E      -0.116900
     12 CAH        -46.8650    12.7940    -1.3070 c6         1 R2E       0.178300
     13 CAJ        -44.3880    12.8030    -1.0990 ca         1 R2E       0.126100
     14 CAK        -44.2790    11.3930    -1.1260 ca         1 R2E      -0.159000
     15 CAO        -44.0540     7.1020    -1.0420 ca         1 R2E       0.259000
     16 CAP        -44.9450     6.3940    -1.8700 ca         1 R2E      -0.109000
     17 CAQ        -45.1260     5.0080    -1.7120 ca         1 R2E      -0.100000
     18 CAR        -44.4250     4.3130    -0.7140 ca         1 R2E       0.132000
     19 CAT        -43.5440     5.0060     0.1390 ca         1 R2E       0.073000
     20 CAV        -43.3610     6.3950    -0.0190 ca         1 R2E       0.205000
     21 CBB        -41.9480    12.9670    -1.1690 ca         1 R2E      -0.187000
     22 CBC        -43.2130    13.5920    -1.1140 ca         1 R2E       0.157100
     23 CBE        -42.2100    15.8580    -1.0890 c3         1 R2E       0.141900
     24 CBF        -46.9840    12.4240    -2.8100 c6         1 R2E      -0.116900
     25 CBG        -48.3740    11.8270    -3.1270 c6         1 R2E       0.098500
     26 FAW        -42.5500     7.0510     0.8480 f          1 R2E      -0.141000
     27 NAE        -49.4580    12.7590    -2.7070 n          1 R2E      -0.413800
     28 NAN        -43.9260     8.4900    -1.2590 nu         1 R2E      -0.947900
     29 OAD        -50.8670    14.4990    -3.2280 o          1 R2E      -0.600100
     30 OAI        -45.6130    13.4560    -1.0320 os         1 R2E      -0.328100
     31 OBD        -43.3430    14.9720    -1.0760 os         1 R2E      -0.315100
     32 Cl1        -44.6790     2.5760    -0.5460 cl         1 R2E      -0.161000
     33 Cl2        -42.6750     4.1450     1.4180 cl         1 R2E      -0.137000
     34 H1         -39.5810     9.1910    -1.3410 h5         1 R2E       0.049100
     35 H2         -49.4700    13.3890    -7.0210 hc         1 R2E       0.041033
     36 H3         -49.4720    14.8180    -5.9650 hc         1 R2E       0.041033
     37 H4         -48.3310    13.4900    -5.6620 hc         1 R2E       0.041033
     38 H5         -51.3960    13.3170    -5.4360 hc         1 R2E       0.063200
     39 H6         -50.2590    11.9660    -5.1510 hc         1 R2E       0.063200
     40 H7         -50.2020    13.7840    -0.9770 h1         1 R2E       0.057700
     41 H8         -49.5330    12.1790    -0.6730 h1         1 R2E       0.057700
     42 H9         -47.9850    13.9370     0.1730 hc         1 R2E       0.065450
     43 H10        -47.9260    14.6950    -1.4190 hc         1 R2E       0.065450
     44 H11        -46.9410    11.8880    -0.6890 h1         1 R2E       0.039700
     45 H12        -45.1700    10.7780    -1.0830 ha         1 R2E       0.114000
     46 H13        -45.4920     6.9160    -2.6510 ha         1 R2E       0.124000
     47 H14        -45.8100     4.4720    -2.3650 ha         1 R2E       0.137000
     48 H15        -41.0360    13.5550    -1.1830 ha         1 R2E       0.144000
     49 H16        -42.5450    16.9020    -1.0530 h1         1 R2E       0.046700
     50 H17        -41.5640    15.6790    -0.2200 h1         1 R2E       0.046700
     51 H18        -41.6190    15.7230    -2.0040 h1         1 R2E       0.046700
     52 H19        -46.2070    11.7050    -3.0970 hc         1 R2E       0.065450
     53 H20        -46.8220    13.3210    -3.4240 hc         1 R2E       0.065450
     54 H21        -48.4200    11.5920    -4.1970 h1         1 R2E       0.057700
     55 H22        -48.4950    10.8770    -2.5880 h1         1 R2E       0.057700
     56 H23        -44.7610     8.9260    -1.6470 hn         1 R2E       0.504000
@<TRIPOS>BOND
     1     1     2 ar  
     2     1     5 ar  
     3     1    21 ar  
     4     2     3 ar  
     5     2    14 ar  
     6     3     4 ar  
     7     3    28 1   
     8     4     6 ar  
     9     5     6 ar  
    10     6    34 1   
    11     7     8 1   
    12     7    35 1   
    13     7    36 1   
    14     7    37 1   
    15     8     9 1   
    16     8    38 1   
    17     8    39 1   
    18     9    27 1   
    19     9    29 2   
    20    10    11 1   
    21    10    27 1   
    22    10    40 1   
    23    10    41 1   
    24    11    12 1   
    25    11    42 1   
    26    11    43 1   
    27    12    24 1   
    28    12    30 1   
    29    12    44 1   
    30    13    14 ar  
    31    13    22 ar  
    32    13    30 1   
    33    14    45 1   
    34    15    16 ar  
    35    15    20 ar  
    36    15    28 1   
    37    16    17 ar  
    38    16    46 1   
    39    17    18 ar  
    40    17    47 1   
    41    18    19 ar  
    42    18    32 1   
    43    19    20 ar  
    44    19    33 1   
    45    20    26 1   
    46    21    22 ar  
    47    21    48 1   
    48    22    31 1   
    49    23    31 1   
    50    23    49 1   
    51    23    50 1   
    52    23    51 1   
    53    24    25 1   
    54    24    52 1   
    55    24    53 1   
    56    25    27 1   
    57    25    54 1   
    58    25    55 1   
    59    28    56 1   
@<TRIPOS>SUBSTRUCTURE
     1 R2E         1 TEMP              0 ****  ****    0 ROOT
