@<TRIPOS>MOLECULE
R2E
   56    59     1     0     0
SMALL
abcg2


@<TRIPOS>ATOM
      1 C4         -42.0220    11.4040    -1.1930 ca         1 R2E       0.065000
      2 C5         -43.2040    10.6420    -1.1780 ca         1 R2E      -0.162000
      3 C6         -43.0180     9.2290    -1.1290 ca         1 R2E       0.395900
      4 N1         -41.8160     8.6950    -1.0710 nb         1 R2E      -0.259000
      5 N3         -40.7920    10.8310    -1.1410 nb         1 R2E      -0.198000
      6 C2         -40.7700     9.5300    -1.0720 ca         1 R2E       0.163900
      7 CAA        -49.1950    14.0750    -5.7530 c3         1 R2E      -0.087100
      8 CAB        -50.3350    13.4000    -4.9890 c3         1 R2E      -0.157400
      9 CAC        -50.2970    13.7310    -3.5100 c          1 R2E       0.609100
     10 CAF        -49.3720    13.2980    -1.2940 c6         1 R2E       0.098500
     11 CAG        -47.9680    13.8060    -0.9880 c6         1 R2E      -0.116900
     12 CAH        -46.9310    12.7860    -1.4280 c6         1 R2E       0.178300
     13 CAJ        -44.5350    12.6580    -1.2380 ca         1 R2E       0.126100
     14 CAK        -44.4590    11.2920    -1.1900 ca         1 R2E      -0.159000
     15 CAO        -43.9820     7.0000    -1.0040 ca         1 R2E       0.259000
     16 CAP        -44.4960     6.1420    -1.9680 ca         1 R2E      -0.109000
     17 CAQ        -44.4410     4.7690    -1.8060 ca         1 R2E      -0.100000
     18 CAR        -43.8460     4.2280    -0.6790 ca         1 R2E       0.132000
     19 CAT        -43.3250     5.0670     0.3020 ca         1 R2E       0.073000
     20 CAV        -43.4150     6.4380     0.1320 ca         1 R2E       0.205000
     21 CBB        -42.1100    12.8100    -1.2500 ca         1 R2E      -0.187000
     22 CBC        -43.3300    13.4330    -1.2800 ca         1 R2E       0.157100
     23 CBE        -42.3830    15.5950    -1.3730 c3         1 R2E       0.141900
     24 CBF        -47.1330    12.4020    -2.8890 c6         1 R2E      -0.116900
     25 CBG        -48.5720    11.9600    -3.1370 c6         1 R2E       0.098500
     26 FAW        -42.9630     7.2290     1.0970 f          1 R2E      -0.141000
     27 NAE        -49.5090    12.9800    -2.7040 n          1 R2E      -0.413800
     28 NAN        -44.0880     8.3870    -1.1390 nu         1 R2E      -0.947900
     29 OAD        -50.9570    14.6670    -3.0760 o          1 R2E      -0.600100
     30 OAI        -45.6580    13.3910    -1.2250 os         1 R2E      -0.328100
     31 OBD        -43.5200    14.7520    -1.3390 os         1 R2E      -0.315100
     32 CL1        -43.7510     2.5220    -0.4900 cl         1 R2E      -0.161000
     33 CL2        -42.6050     4.4520     1.7300 cl         1 R2E      -0.137000
     34 H1         -39.7950     9.0560    -1.0200 h5         1 R2E       0.049100
     35 H2         -49.2980    13.8900    -6.8220 hc         1 R2E       0.041033
     36 H3         -49.2060    15.1540    -5.5990 hc         1 R2E       0.041033
     37 H4         -48.2170    13.7040    -5.4480 hc         1 R2E       0.041033
     38 H5         -51.2880    13.7730    -5.3650 hc         1 R2E       0.063200
     39 H6         -50.3280    12.3250    -5.1710 hc         1 R2E       0.063200
     40 H7         -50.1150    14.0380    -1.0120 h1         1 R2E       0.057700
     41 H8         -49.5760    12.3920    -0.7140 h1         1 R2E       0.057700
     42 H9         -47.8760    13.9980     0.0830 hc         1 R2E       0.065450
     43 H10        -47.8010    14.7520    -1.5110 hc         1 R2E       0.065450
     44 H11        -47.0320    11.8960    -0.7940 h1         1 R2E       0.039700
     45 H12        -45.3690    10.7100    -1.1400 ha         1 R2E       0.114000
     46 H13        -44.9460     6.5590    -2.8600 ha         1 R2E       0.124000
     47 H14        -44.8470     4.1170    -2.5670 ha         1 R2E       0.137000
     48 H15        -41.1850    13.3710    -1.2700 ha         1 R2E       0.144000
     49 H16        -42.7590    16.6130    -1.4220 h1         1 R2E       0.046700
     50 H17        -41.7700    15.4840    -0.4760 h1         1 R2E       0.046700
     51 H18        -41.7620    15.4020    -2.2520 h1         1 R2E       0.046700
     52 H19        -46.4620    11.5930    -3.1840 hc         1 R2E       0.065450
     53 H20        -46.9010    13.2650    -3.5210 hc         1 R2E       0.065450
     54 H21        -48.7070    11.7230    -4.1880 h1         1 R2E       0.057700
     55 H22        -48.7790    11.0400    -2.5800 h1         1 R2E       0.057700
     56 H23        -44.9670     8.7300    -1.4940 hn         1 R2E       0.504000
@<TRIPOS>BOND
     1     1     2 ar  
     2     1     5 ar  
     3     1    21 ar  
     4     2     3 ar  
     5     2    14 ar  
     6     3     4 ar  
     7     3    28 1   
     8     4     6 ar  
     9     5     6 ar  
    10     6    34 1   
    11     7     8 1   
    12     7    35 1   
    13     7    36 1   
    14     7    37 1   
    15     8     9 1   
    16     8    38 1   
    17     8    39 1   
    18     9    27 1   
    19     9    29 2   
    20    10    11 1   
    21    10    27 1   
    22    10    40 1   
    23    10    41 1   
    24    11    12 1   
    25    11    42 1   
    26    11    43 1   
    27    12    24 1   
    28    12    30 1   
    29    12    44 1   
    30    13    14 ar  
    31    13    22 ar  
    32    13    30 1   
    33    14    45 1   
    34    15    16 ar  
    35    15    20 ar  
    36    15    28 1   
    37    16    17 ar  
    38    16    46 1   
    39    17    18 ar  
    40    17    47 1   
    41    18    19 ar  
    42    18    32 1   
    43    19    20 ar  
    44    19    33 1   
    45    20    26 1   
    46    21    22 ar  
    47    21    48 1   
    48    22    31 1   
    49    23    31 1   
    50    23    49 1   
    51    23    50 1   
    52    23    51 1   
    53    24    25 1   
    54    24    52 1   
    55    24    53 1   
    56    25    27 1   
    57    25    54 1   
    58    25    55 1   
    59    28    56 1   
@<TRIPOS>SUBSTRUCTURE
     1 R2E         1 TEMP              0 ****  ****    0 ROOT
