@<TRIPOS>MOLECULE
R2F
  108   113     1     0     0
SMALL
No Charge or Current Charge


@<TRIPOS>ATOM
      1 O7P         -5.3960    -8.0020   -12.5530 o          1 R2F      -0.427000
      2 C7P         -5.4390    -6.8390   -12.9190 c          1 R2F       0.621700
      3 C1P         -6.5410    -5.9180   -12.4610 ca         1 R2F      -0.179600
      4 C6P         -6.5230    -5.4780   -11.1210 ca         1 R2F      -0.069000
      5 C5P         -7.5430    -4.6570   -10.6200 ca         1 R2F      -0.133000
      6 C4P         -8.6090    -4.2890   -11.4490 ca         1 R2F      -0.101000
      7 C3P         -8.6500    -4.7360   -12.7780 ca         1 R2F      -0.103000
      8 C2P         -7.6210    -5.5450   -13.3100 ca         1 R2F      -0.030300
      9 C2C         -7.7390    -6.0240   -14.7790 c6         1 R2F       0.112200
     10 C2A         -8.1690    -4.8780   -15.7030 ca         1 R2F      -0.196800
     11 C3A         -7.2520    -3.8870   -16.0920 ca         1 R2F      -0.027500
     12 C4A         -7.6710    -2.8190   -16.9030 ca         1 R2F      -0.219000
     13 C5A         -9.0060    -2.7180   -17.3390 ca         1 R2F       0.381000
     14 N1A         -9.4240    -1.6330   -18.1560 nh         1 R2F      -0.842400
     15 C21        -10.5070    -1.7900   -19.1580 c3         1 R2F       0.230300
     16 C22        -11.8650    -1.2240   -18.7000 c3         1 R2F      -0.116600
     17 C11         -8.7990    -0.2930   -18.0410 c3         1 R2F       0.230300
     18 C12         -7.7800     0.0160   -19.1550 c3         1 R2F      -0.116600
     19 C6A         -9.9150    -3.7170   -16.9490 ca         1 R2F      -0.225000
     20 C1A         -9.5010    -4.7870   -16.1460 ca         1 R2F       0.176100
     21 O1B        -10.4180    -5.7500   -15.8030 os         1 R2F      -0.252200
     22 C4B        -10.0270    -6.9860   -15.3520 ca         1 R2F       0.176100
     23 C3C        -10.9480    -8.0410   -15.3960 ca         1 R2F      -0.225000
     24 C4C        -10.5750    -9.3350   -14.9940 ca         1 R2F       0.381000
     25 N1C        -11.5070   -10.4050   -15.0270 nh         1 R2F      -0.842400
     26 C23        -12.5810   -10.4650   -16.0490 c3         1 R2F       0.230300
     27 C24        -13.9650   -10.0380   -15.5250 c3         1 R2F      -0.116600
     28 C13        -11.4580   -11.5000   -14.0280 c3         1 R2F       0.230300
     29 C14        -10.8510   -12.8090   -14.5670 c3         1 R2F      -0.116600
     30 C5C         -9.2520    -9.5490   -14.5630 ca         1 R2F      -0.219000
     31 C6C         -8.3300    -8.4920   -14.5070 ca         1 R2F      -0.027500
     32 C1C         -8.7180    -7.1960   -14.8840 ca         1 R2F      -0.196800
     33 O1          -4.5190    -6.3310   -13.8090 os         1 R2F      -0.446100
     34 C2          -4.2680    -4.9080   -13.9000 c3         1 R2F       0.179600
     35 C3          -3.1220    -4.5330   -12.9280 c3         1 R2F       0.134600
     36 O4          -3.6210    -4.5390   -11.5760 os         1 R2F      -0.459000
     37 C5          -2.6570    -4.2590   -10.5360 c3         1 R2F       0.143600
     38 C6          -1.6780    -5.4480   -10.3730 c3         1 R2F       0.043600
     39 N3T         -2.3410    -6.7540   -10.2160 na         1 R2F       0.113800
     40 N2T         -1.8980    -7.8500   -10.8950 nc         1 R2F      -0.205800
     41 N1T         -2.7020    -8.8330   -10.5820 nd         1 R2F      -0.341000
     42 C5T         -3.6640    -8.3700    -9.7040 cd         1 R2F       0.200300
     43 C4T         -3.4280    -7.0520    -9.4350 cc         1 R2F      -0.181000
     44 C1          -4.7800    -9.2470    -9.1810 c3         1 R2F       0.143300
     45 O1F         -5.7320    -8.4400    -8.4560 os         1 R2F      -0.489000
     46 C1F         -6.9180    -9.1110    -7.9750 c6         1 R2F       0.386300
     47 C2F         -7.7740    -8.1820    -7.0410 c6         1 R2F       0.159300
     48 O2F         -7.0340    -7.6630    -5.9070 oh         1 R2F      -0.714000
     49 C3F         -8.3670    -6.9970    -7.8650 c6         1 R2F       0.137300
     50 O3F         -9.2280    -6.1950    -7.0380 oh         1 R2F      -0.657000
     51 C4F         -9.1670    -7.5310    -9.0900 c6         1 R2F       0.119300
     52 O4F        -10.3540    -8.2110    -8.6180 oh         1 R2F      -0.704000
     53 C5F         -8.2260    -8.4650    -9.9230 c6         1 R2F       0.139300
     54 O5F         -7.7120    -9.5450    -9.1070 os         1 R2F      -0.471000
     55 C6F         -8.9210    -9.1080   -11.1470 c3         1 R2F      -0.092100
     56 H1          -5.7100    -5.7760   -10.4640 ha         1 R2F       0.136000
     57 H2          -7.5110    -4.3150    -9.5890 ha         1 R2F       0.110000
     58 H3          -9.4090    -3.6610   -11.0610 ha         1 R2F       0.114000
     59 H4          -9.4970    -4.4510   -13.3960 ha         1 R2F       0.128000
     60 H5          -6.2170    -3.9370   -15.7680 ha         1 R2F       0.118500
     61 H6          -6.9400    -2.0730   -17.1950 ha         1 R2F       0.116500
     62 H7         -10.6340    -2.8520   -19.4100 h1         1 R2F       0.046950
     63 H8         -10.2220    -1.2920   -20.0940 h1         1 R2F       0.046950
     64 H9         -12.6270    -1.4070   -19.4670 hc         1 R2F       0.042033
     65 H10        -12.1950    -1.6990   -17.7690 hc         1 R2F       0.042033
     66 H11        -11.8020    -0.1430   -18.5330 hc         1 R2F       0.042033
     67 H12         -8.3000    -0.1930   -17.0680 h1         1 R2F       0.046950
     68 H13         -9.5770     0.4820   -18.0590 h1         1 R2F       0.046950
     69 H14         -7.3290     1.0010   -18.9900 hc         1 R2F       0.042033
     70 H15         -6.9790    -0.7300   -19.1710 hc         1 R2F       0.042033
     71 H16         -8.2660     0.0240   -20.1370 hc         1 R2F       0.042033
     72 H17        -10.9510    -3.6730   -17.2610 ha         1 R2F       0.128000
     73 H18        -11.9530    -7.8390   -15.7450 ha         1 R2F       0.128000
     74 H19        -12.3170    -9.8310   -16.9070 h1         1 R2F       0.046950
     75 H20        -12.6590   -11.4870   -16.4450 h1         1 R2F       0.046950
     76 H21        -14.7000   -10.0650   -16.3370 hc         1 R2F       0.042033
     77 H22        -14.3080   -10.7130   -14.7330 hc         1 R2F       0.042033
     78 H23        -13.9350    -9.0200   -15.1220 hc         1 R2F       0.042033
     79 H24        -10.8810   -11.1800   -13.1490 h1         1 R2F       0.046950
     80 H25        -12.4710   -11.7130   -13.6600 h1         1 R2F       0.046950
     81 H26        -10.8070   -13.5600   -13.7700 hc         1 R2F       0.042033
     82 H27        -11.4590   -13.2140   -15.3840 hc         1 R2F       0.042033
     83 H28         -9.8340   -12.6440   -14.9410 hc         1 R2F       0.042033
     84 H29         -8.9260   -10.5400   -14.2680 ha         1 R2F       0.116500
     85 H30         -7.3170    -8.6870   -14.1660 ha         1 R2F       0.118500
     86 H31         -3.9270    -4.6670   -14.9150 h1         1 R2F       0.065700
     87 H32         -5.1530    -4.2930   -13.7020 h1         1 R2F       0.065700
     88 H33         -2.3000    -5.2490   -13.0590 h1         1 R2F       0.045700
     89 H34         -2.7480    -3.5350   -13.1900 h1         1 R2F       0.045700
     90 H35         -3.1790    -4.1030    -9.5830 h1         1 R2F       0.057200
     91 H36         -2.0950    -3.3420   -10.7560 h1         1 R2F       0.057200
     92 H37         -1.0550    -5.2740    -9.4880 h1         1 R2F       0.077200
     93 H38         -1.0060    -5.4890   -11.2390 h1         1 R2F       0.077200
     94 H39         -3.9430    -6.3410    -8.8050 h4         1 R2F       0.171000
     95 H40         -5.2590    -9.7440   -10.0340 h1         1 R2F       0.055700
     96 H41         -4.3520   -10.0210    -8.5300 h1         1 R2F       0.055700
     97 H42         -6.6160    -9.9930    -7.3910 h2         1 R2F       0.082700
     98 H43         -8.6140    -8.7920    -6.6760 h1         1 R2F       0.078700
     99 H44         -7.5230    -6.8470    -5.6440 ho         1 R2F       0.518000
    100 H45         -7.5320    -6.3860    -8.2390 h1         1 R2F       0.055700
    101 H46        -10.1210    -6.5930    -7.1680 ho         1 R2F       0.443000
    102 H47         -9.4520    -6.6780    -9.7220 h1         1 R2F       0.040700
    103 H48        -10.7750    -8.6370    -9.3990 ho         1 R2F       0.502000
    104 H49         -7.3810    -7.8730   -10.3010 h1         1 R2F       0.063700
    105 H50         -9.3640    -8.3400   -11.7920 hc         1 R2F       0.049700
    106 H51         -8.1970    -9.6690   -11.7480 hc         1 R2F       0.049700
    107 H52         -9.7150    -9.8030   -10.8510 hc         1 R2F       0.049700
    108 H53         -6.7640    -6.3750   -15.1410 hc         1 R2F       0.070700
@<TRIPOS>BOND
     1     1     2 2   
     2     2     3 1   
     3     2    33 1   
     4     3     4 ar  
     5     3     8 ar  
     6     4     5 ar  
     7     4    56 1   
     8     5     6 ar  
     9     5    57 1   
    10     6     7 ar  
    11     6    58 1   
    12     7     8 ar  
    13     7    59 1   
    14     8     9 1   
    15     9    10 1   
    16     9    32 1   
    17     9   108 1   
    18    10    11 ar  
    19    10    20 ar  
    20    11    12 ar  
    21    11    60 1   
    22    12    13 ar  
    23    12    61 1   
    24    13    14 1   
    25    13    19 ar  
    26    14    15 1   
    27    14    17 1   
    28    15    16 1   
    29    15    62 1   
    30    15    63 1   
    31    16    64 1   
    32    16    65 1   
    33    16    66 1   
    34    17    18 1   
    35    17    67 1   
    36    17    68 1   
    37    18    69 1   
    38    18    70 1   
    39    18    71 1   
    40    19    20 ar  
    41    19    72 1   
    42    20    21 1   
    43    21    22 1   
    44    22    23 ar  
    45    22    32 ar  
    46    23    24 ar  
    47    23    73 1   
    48    24    25 1   
    49    24    30 ar  
    50    25    26 1   
    51    25    28 1   
    52    26    27 1   
    53    26    74 1   
    54    26    75 1   
    55    27    76 1   
    56    27    77 1   
    57    27    78 1   
    58    28    29 1   
    59    28    79 1   
    60    28    80 1   
    61    29    81 1   
    62    29    82 1   
    63    29    83 1   
    64    30    31 ar  
    65    30    84 1   
    66    31    32 ar  
    67    31    85 1   
    68    33    34 1   
    69    34    35 1   
    70    34    86 1   
    71    34    87 1   
    72    35    36 1   
    73    35    88 1   
    74    35    89 1   
    75    36    37 1   
    76    37    38 1   
    77    37    90 1   
    78    37    91 1   
    79    38    39 1   
    80    38    92 1   
    81    38    93 1   
    82    39    40 1   
    83    39    43 1   
    84    40    41 2   
    85    41    42 1   
    86    42    43 2   
    87    42    44 1   
    88    43    94 1   
    89    44    45 1   
    90    44    95 1   
    91    44    96 1   
    92    45    46 1   
    93    46    47 1   
    94    46    54 1   
    95    46    97 1   
    96    47    48 1   
    97    47    49 1   
    98    47    98 1   
    99    48    99 1   
   100    49    50 1   
   101    49    51 1   
   102    49   100 1   
   103    50   101 1   
   104    51    52 1   
   105    51    53 1   
   106    51   102 1   
   107    52   103 1   
   108    53    54 1   
   109    53    55 1   
   110    53   104 1   
   111    55   105 1   
   112    55   106 1   
   113    55   107 1   
@<TRIPOS>SUBSTRUCTURE
     1 R2F         1 TEMP              0 ****  ****    0 ROOT
