@<TRIPOS>MOLECULE
R2F
  108   113     1     0     0
SMALL
abcg2


@<TRIPOS>ATOM
      1 O7P         -5.4130    -7.9100   -13.0880 o          1 R2F      -0.427000
      2 C7P         -5.4200    -6.6980   -13.0680 c          1 R2F       0.621700
      3 C1P         -6.6060    -5.9190   -12.5830 ca         1 R2F      -0.179600
      4 C6P         -6.5870    -5.4390   -11.2710 ca         1 R2F      -0.069000
      5 C5P         -7.6940    -4.7880   -10.7520 ca         1 R2F      -0.133000
      6 C4P         -8.8290    -4.6250   -11.5430 ca         1 R2F      -0.101000
      7 C3P         -8.8420    -5.1010   -12.8440 ca         1 R2F      -0.103000
      8 C2P         -7.7330    -5.7510   -13.3910 ca         1 R2F      -0.030300
      9 C2C         -7.7770    -6.2350   -14.8410 c6         1 R2F       0.112200
     10 C2A         -8.1450    -5.1050   -15.7730 ca         1 R2F      -0.196800
     11 C3A         -7.2430    -4.1060   -16.1340 ca         1 R2F      -0.027500
     12 C4A         -7.6030    -3.0240   -16.9170 ca         1 R2F      -0.219000
     13 C5A         -8.9320    -2.8800   -17.3840 ca         1 R2F       0.381000
     14 N1A         -9.3150    -1.8080   -18.1510 nh         1 R2F      -0.842400
     15 C21        -10.6560    -1.7050   -18.7080 c3         1 R2F       0.230300
     16 C22        -11.6670    -1.0750   -17.7510 c3         1 R2F      -0.116600
     17 C11         -8.4110    -0.6980   -18.4230 c3         1 R2F       0.230300
     18 C12         -7.5460    -0.9090   -19.6650 c3         1 R2F      -0.116600
     19 C6A         -9.8430    -3.8960   -17.0380 ca         1 R2F      -0.225000
     20 C1A         -9.4410    -4.9720   -16.2590 ca         1 R2F       0.176100
     21 O1B        -10.4220    -5.9010   -15.9810 os         1 R2F      -0.252200
     22 C4B        -10.0360    -7.1410   -15.5130 ca         1 R2F       0.176100
     23 C3C        -11.0060    -8.1300   -15.5800 ca         1 R2F      -0.225000
     24 C4C        -10.7260    -9.4390   -15.1420 ca         1 R2F       0.381000
     25 N1C        -11.6790   -10.4270   -15.1820 nh         1 R2F      -0.842400
     26 C23        -13.0120   -10.1850   -15.7150 c3         1 R2F       0.230300
     27 C24        -13.9780    -9.5910   -14.6900 c3         1 R2F      -0.116600
     28 C13        -11.4350   -11.7500   -14.6220 c3         1 R2F       0.230300
     29 C14        -10.8080   -12.7240   -15.6180 c3         1 R2F      -0.116600
     30 C5C         -9.4160    -9.6900   -14.6690 ca         1 R2F      -0.219000
     31 C6C         -8.4820    -8.6740   -14.5980 ca         1 R2F      -0.027500
     32 C1C         -8.7620    -7.3700   -15.0030 ca         1 R2F      -0.196800
     33 O1          -4.3190    -6.0520   -13.4720 os         1 R2F      -0.446100
     34 C2          -4.2230    -4.6110   -13.5710 c3         1 R2F       0.179600
     35 C3          -3.1700    -4.1010   -12.6210 c3         1 R2F       0.134600
     36 O4          -3.6840    -4.1860   -11.3010 os         1 R2F      -0.459000
     37 C5          -2.7590    -3.9310   -10.2620 c3         1 R2F       0.143600
     38 C6          -1.7480    -5.0590   -10.0610 c3         1 R2F       0.043600
     39 N3T         -2.4020    -6.3590   -10.0080 na         1 R2F       0.113800
     40 N2T         -2.0500    -7.3260   -10.8640 nc         1 R2F      -0.205800
     41 N1T         -2.8360    -8.3490   -10.6490 nd         1 R2F      -0.341000
     42 C5T         -3.7050    -8.0400    -9.6520 cd         1 R2F       0.200300
     43 C4T         -3.4320    -6.7600    -9.2320 cc         1 R2F      -0.181000
     44 C1          -4.7490    -8.9950    -9.1880 c3         1 R2F       0.143300
     45 O1F         -5.7510    -8.2560    -8.5000 os         1 R2F      -0.489000
     46 C1F         -6.8280    -9.0430    -8.0540 c6         1 R2F       0.386300
     47 C2F         -7.7280    -8.1770    -7.1730 c6         1 R2F       0.159300
     48 O2F         -6.9640    -7.6400    -6.1040 oh         1 R2F      -0.714000
     49 C3F         -8.3730    -7.0840    -8.0120 c6         1 R2F       0.137300
     50 O3F         -9.1960    -6.3120    -7.1410 oh         1 R2F      -0.657000
     51 C4F         -9.1390    -7.7010    -9.1820 c6         1 R2F       0.119300
     52 O4F        -10.2560    -8.4220    -8.6630 oh         1 R2F      -0.704000
     53 C5F         -8.1810    -8.5910    -9.9820 c6         1 R2F       0.139300
     54 O5F         -7.5710    -9.5810    -9.1250 os         1 R2F      -0.471000
     55 C6F         -8.8470    -9.3320   -11.1170 c3         1 R2F      -0.092100
     56 H1          -5.6980    -5.5710   -10.6710 ha         1 R2F       0.136000
     57 H2          -7.6760    -4.4170    -9.7360 ha         1 R2F       0.110000
     58 H3          -9.7020    -4.1230   -11.1440 ha         1 R2F       0.114000
     59 H4          -9.7250    -4.9600   -13.4540 ha         1 R2F       0.128000
     60 H5          -6.2190    -4.1780   -15.7850 ha         1 R2F       0.118500
     61 H6          -6.8480    -2.2970   -17.1750 ha         1 R2F       0.116500
     62 H7         -10.9960    -2.6930   -19.0240 h1         1 R2F       0.046950
     63 H8         -10.5870    -1.1030   -19.6160 h1         1 R2F       0.046950
     64 H9         -12.6510    -1.0150   -18.2230 hc         1 R2F       0.042033
     65 H10        -11.7610    -1.6630   -16.8370 hc         1 R2F       0.042033
     66 H11        -11.3570    -0.0650   -17.4770 hc         1 R2F       0.042033
     67 H12         -7.7850    -0.5140   -17.5490 h1         1 R2F       0.046950
     68 H13         -9.0230     0.1970   -18.5510 h1         1 R2F       0.046950
     69 H14         -6.9050    -0.0410   -19.8330 hc         1 R2F       0.042033
     70 H15         -6.9110    -1.7890   -19.5550 hc         1 R2F       0.042033
     71 H16         -8.1720    -1.0480   -20.5480 hc         1 R2F       0.042033
     72 H17        -10.8740    -3.8670   -17.3540 ha         1 R2F       0.128000
     73 H18        -11.9730    -7.8550   -15.9690 ha         1 R2F       0.128000
     74 H19        -12.9440    -9.5390   -16.5920 h1         1 R2F       0.046950
     75 H20        -13.3980   -11.1410   -16.0720 h1         1 R2F       0.046950
     76 H21        -14.9630    -9.4390   -15.1380 hc         1 R2F       0.042033
     77 H22        -14.0910   -10.2620   -13.8360 hc         1 R2F       0.042033
     78 H23        -13.6170    -8.6290   -14.3230 hc         1 R2F       0.042033
     79 H24        -10.8110   -11.6610   -13.7320 h1         1 R2F       0.046950
     80 H25        -12.3950   -12.1420   -14.2820 h1         1 R2F       0.046950
     81 H26        -10.6650   -13.7030   -15.1540 hc         1 R2F       0.042033
     82 H27        -11.4550   -12.8500   -16.4890 hc         1 R2F       0.042033
     83 H28         -9.8380   -12.3630   -15.9620 hc         1 R2F       0.042033
     84 H29         -9.1300   -10.6780   -14.3450 ha         1 R2F       0.116500
     85 H30         -7.5000    -8.8900   -14.1960 ha         1 R2F       0.118500
     86 H31         -3.9280    -4.4000   -14.5980 h1         1 R2F       0.065700
     87 H32         -5.1880    -4.1510   -13.3700 h1         1 R2F       0.065700
     88 H33         -2.2570    -4.6930   -12.7350 h1         1 R2F       0.045700
     89 H34         -2.9380    -3.0590   -12.8750 h1         1 R2F       0.045700
     90 H35         -3.3590    -3.8070    -9.3610 h1         1 R2F       0.057200
     91 H36         -2.2070    -3.0000   -10.4360 h1         1 R2F       0.057200
     92 H37         -1.1980    -4.8860    -9.1340 h1         1 R2F       0.077200
     93 H38         -1.0320    -5.1170   -10.8770 h1         1 R2F       0.077200
     94 H39         -3.8820    -6.1300    -8.4860 h4         1 R2F       0.171000
     95 H40         -5.1730    -9.5170   -10.0500 h1         1 R2F       0.055700
     96 H41         -4.3230    -9.7500    -8.5150 h1         1 R2F       0.055700
     97 H42         -6.4550    -9.9060    -7.4960 h2         1 R2F       0.082700
     98 H43         -8.5130    -8.8320    -6.7830 h1         1 R2F       0.078700
     99 H44         -7.5160    -6.9700    -5.6790 ho         1 R2F       0.518000
    100 H45         -7.5810    -6.4560    -8.4240 h1         1 R2F       0.055700
    101 H46         -9.3400    -5.4450    -7.5400 ho         1 R2F       0.443000
    102 H47         -9.4850    -6.8970    -9.8410 h1         1 R2F       0.040700
    103 H48        -10.8640    -8.6070    -9.3880 ho         1 R2F       0.502000
    104 H49         -7.3950    -7.9450   -10.3830 h1         1 R2F       0.063700
    105 H50         -9.3030    -8.6250   -11.8100 hc         1 R2F       0.049700
    106 H51         -8.1110    -9.9150   -11.6710 hc         1 R2F       0.049700
    107 H52         -9.6160   -10.0120   -10.7470 hc         1 R2F       0.049700
    108 H53         -6.7820    -6.5940   -15.1090 hc         1 R2F       0.070700
@<TRIPOS>BOND
     1     1     2 2   
     2     2     3 1   
     3     2    33 1   
     4     3     4 ar  
     5     3     8 ar  
     6     4     5 ar  
     7     4    56 1   
     8     5     6 ar  
     9     5    57 1   
    10     6     7 ar  
    11     6    58 1   
    12     7     8 ar  
    13     7    59 1   
    14     8     9 1   
    15     9    10 1   
    16     9    32 1   
    17     9   108 1   
    18    10    11 ar  
    19    10    20 ar  
    20    11    12 ar  
    21    11    60 1   
    22    12    13 ar  
    23    12    61 1   
    24    13    14 1   
    25    13    19 ar  
    26    14    15 1   
    27    14    17 1   
    28    15    16 1   
    29    15    62 1   
    30    15    63 1   
    31    16    64 1   
    32    16    65 1   
    33    16    66 1   
    34    17    18 1   
    35    17    67 1   
    36    17    68 1   
    37    18    69 1   
    38    18    70 1   
    39    18    71 1   
    40    19    20 ar  
    41    19    72 1   
    42    20    21 1   
    43    21    22 1   
    44    22    23 ar  
    45    22    32 ar  
    46    23    24 ar  
    47    23    73 1   
    48    24    25 1   
    49    24    30 ar  
    50    25    26 1   
    51    25    28 1   
    52    26    27 1   
    53    26    74 1   
    54    26    75 1   
    55    27    76 1   
    56    27    77 1   
    57    27    78 1   
    58    28    29 1   
    59    28    79 1   
    60    28    80 1   
    61    29    81 1   
    62    29    82 1   
    63    29    83 1   
    64    30    31 ar  
    65    30    84 1   
    66    31    32 ar  
    67    31    85 1   
    68    33    34 1   
    69    34    35 1   
    70    34    86 1   
    71    34    87 1   
    72    35    36 1   
    73    35    88 1   
    74    35    89 1   
    75    36    37 1   
    76    37    38 1   
    77    37    90 1   
    78    37    91 1   
    79    38    39 1   
    80    38    92 1   
    81    38    93 1   
    82    39    40 1   
    83    39    43 1   
    84    40    41 2   
    85    41    42 1   
    86    42    43 2   
    87    42    44 1   
    88    43    94 1   
    89    44    45 1   
    90    44    95 1   
    91    44    96 1   
    92    45    46 1   
    93    46    47 1   
    94    46    54 1   
    95    46    97 1   
    96    47    48 1   
    97    47    49 1   
    98    47    98 1   
    99    48    99 1   
   100    49    50 1   
   101    49    51 1   
   102    49   100 1   
   103    50   101 1   
   104    51    52 1   
   105    51    53 1   
   106    51   102 1   
   107    52   103 1   
   108    53    54 1   
   109    53    55 1   
   110    53   104 1   
   111    55   105 1   
   112    55   106 1   
   113    55   107 1   
@<TRIPOS>SUBSTRUCTURE
     1 R2F         1 TEMP              0 ****  ****    0 ROOT
