@<TRIPOS>MOLECULE
R2G
   16    16     1     0     0
SMALL
abcg2


@<TRIPOS>ATOM
      1 C1          -3.5490    39.3950  -125.2080 c2         1 R2G       0.012100
      2 C2          -2.6070    39.9800  -125.9410 c2         1 R2G      -0.398200
      3 C3          -2.9970    39.8950  -127.3880 c5         1 R2G       0.192500
      4 O3          -2.1760    38.9940  -128.1550 oh         1 R2G      -0.659000
      5 C4          -4.4180    39.3080  -127.3000 c5         1 R2G       0.143300
      6 O4          -4.6210    38.9250  -125.9060 os         1 R2G      -0.327100
      7 C5          -5.4860    40.2930  -127.7110 c3         1 R2G       0.155600
      8 O5          -6.7560    39.6480  -127.6610 oh         1 R2G      -0.651000
      9 H1          -3.5990    39.2320  -124.1400 h4         1 R2G       0.224000
     10 H2          -1.6920    40.4180  -125.5740 ha         1 R2G       0.206000
     11 H3          -3.0020    40.8700  -127.8860 h1         1 R2G       0.046700
     12 HO3         -1.2990    39.3910  -128.2390 ho         1 R2G       0.446000
     13 H4          -4.4920    38.3980  -127.8970 h1         1 R2G       0.104700
     14 H51         -5.4590    41.1610  -127.0430 h1         1 R2G       0.029700
     15 H52         -5.2600    40.6330  -128.7280 h1         1 R2G       0.029700
     16 HO5         -7.4350    40.2990  -127.8710 ho         1 R2G       0.443000
@<TRIPOS>BOND
     1     1     2 2   
     2     1     6 1   
     3     1     9 1   
     4     2     3 1   
     5     2    10 1   
     6     3     4 1   
     7     3     5 1   
     8     3    11 1   
     9     4    12 1   
    10     5     6 1   
    11     5     7 1   
    12     5    13 1   
    13     7     8 1   
    14     7    14 1   
    15     7    15 1   
    16     8    16 1   
@<TRIPOS>SUBSTRUCTURE
     1 R2G         1 TEMP              0 ****  ****    0 ROOT
