@<TRIPOS>MOLECULE
R2G
   16    16     1     0     0
SMALL
No Charge or Current Charge


@<TRIPOS>ATOM
      1 C1          -3.5010    39.3960  -125.3040 c2         1 R2G       0.012100
      2 C2          -2.6190    40.0370  -126.0630 c2         1 R2G      -0.398200
      3 C3          -2.9820    39.8640  -127.5000 c5         1 R2G       0.192500
      4 O3          -2.0510    38.9520  -128.0670 oh         1 R2G      -0.659000
      5 C4          -4.4290    39.2560  -127.3600 c5         1 R2G       0.143300
      6 O4          -4.5310    38.7950  -125.9690 os         1 R2G      -0.327100
      7 C5          -5.5510    40.2920  -127.6460 c3         1 R2G       0.155600
      8 O5          -6.8450    39.6650  -127.6970 oh         1 R2G      -0.651000
      9 H1          -3.4980    39.3160  -124.2120 h4         1 R2G       0.224000
     10 H2          -1.7550    40.5830  -125.6810 ha         1 R2G       0.206000
     11 H3          -2.9820    40.8160  -128.0510 h1         1 R2G       0.046700
     12 HO3         -1.1660    39.2370  -127.7510 ho         1 R2G       0.446000
     13 H4          -4.5650    38.4030  -128.0370 h1         1 R2G       0.104700
     14 H51         -5.5280    41.0680  -126.8690 h1         1 R2G       0.029700
     15 H52         -5.3380    40.7800  -128.6060 h1         1 R2G       0.029700
     16 HO5         -7.5060    40.3800  -127.8360 ho         1 R2G       0.443000
@<TRIPOS>BOND
     1     1     2 2   
     2     1     6 1   
     3     1     9 1   
     4     2     3 1   
     5     2    10 1   
     6     3     4 1   
     7     3     5 1   
     8     3    11 1   
     9     4    12 1   
    10     5     6 1   
    11     5     7 1   
    12     5    13 1   
    13     7     8 1   
    14     7    14 1   
    15     7    15 1   
    16     8    16 1   
@<TRIPOS>SUBSTRUCTURE
     1 R2G         1 TEMP              0 ****  ****    0 ROOT
