@<TRIPOS>MOLECULE
R2H
   42    44     1     0     0
SMALL
bcc


@<TRIPOS>ATOM
      1 CA          -8.8890    20.5270     0.7640 c          1 R2H       0.710500
      2 CB          -8.3790    17.7350     0.1600 c          1 R2H       0.711500
      3 NB          -7.7750    20.1290     0.1400 ns         1 R2H      -0.563900
      4 OB          -8.1600    16.5750    -0.1550 o          1 R2H      -0.638500
      5 CD1        -10.7480    17.1900     3.5750 ca         1 R2H      -0.103000
      6 CD2        -12.4260    18.8370     3.1550 ca         1 R2H      -0.121000
      7 CD3         -6.2800    19.7200     3.0210 ca         1 R2H      -0.082000
      8 CE1        -11.7220    16.2810     3.9620 ca         1 R2H      -0.147000
      9 CE2        -13.3830    17.9270     3.5430 ca         1 R2H       0.035900
     10 CE3         -6.5640    19.7760     4.3760 ca         1 R2H      -0.198000
     11 CAA         -9.8720    19.4540     1.1820 c6         1 R2H       0.042700
     12 CAB         -7.3030    18.7790    -0.0460 c6         1 R2H       0.038700
     13 CBA        -10.0310    19.4530     2.7140 c3         1 R2H      -0.044100
     14 CBB         -6.0750    18.4760     0.8340 c3         1 R2H      -0.035100
     15 CD4         -6.7360    17.3800     3.0030 ca         1 R2H      -0.082000
     16 CE4         -7.0230    17.4160     4.3600 ca         1 R2H      -0.198000
     17 CGA        -11.0800    18.4790     3.1680 ca         1 R2H      -0.103300
     18 CGB         -6.3620    18.5250     2.3070 ca         1 R2H      -0.133300
     19 CZA        -13.0650    16.6350     3.9520 ca         1 R2H       0.115100
     20 CZB         -6.9420    18.6200     5.0560 ca         1 R2H       0.143100
     21 NA          -9.5430    18.1450     0.6720 ns         1 R2H      -0.561900
     22 OA          -9.1460    21.7000     0.9860 o          1 R2H      -0.632500
     23 OAX        -13.9890    15.7360     4.3360 oh         1 R2H      -0.485100
     24 OAY         -7.2070    18.7200     6.3740 oh         1 R2H      -0.491100
     25 H1          -7.1420    20.8630    -0.1480 hn         1 R2H       0.321500
     26 H2          -9.7090    16.8890     3.5990 ha         1 R2H       0.143000
     27 H3         -12.7350    19.8290     2.8460 ha         1 R2H       0.153000
     28 H4          -5.9730    20.6280     2.5160 ha         1 R2H       0.138000
     29 H5         -11.4440    15.2840     4.2810 ha         1 R2H       0.152000
     30 H6          -6.4890    20.7140     4.9110 ha         1 R2H       0.142500
     31 H7         -10.8300    19.7480     0.7420 h1         1 R2H       0.081700
     32 H8          -6.9890    18.6770    -1.0890 h1         1 R2H       0.082700
     33 H9          -9.0700    19.2090     3.1700 hc         1 R2H       0.075700
     34 H10        -10.2950    20.4630     3.0270 hc         1 R2H       0.075700
     35 H11         -5.6920    17.4950     0.5490 hc         1 R2H       0.064700
     36 H12         -5.3000    19.2000     0.5740 hc         1 R2H       0.064700
     37 H13         -6.8010    16.4320     2.4820 ha         1 R2H       0.138000
     38 H14         -7.3040    16.5040     4.8750 ha         1 R2H       0.142500
     39 H15        -10.2550    17.4340     0.7780 hn         1 R2H       0.328500
     40 H16        -14.8790    16.1030     4.2820 ho         1 R2H       0.440000
     41 H17         -7.4490    17.8610     6.7350 ho         1 R2H       0.428000
     42 FY         -14.6830    18.2850     3.5370 f          1 R2H      -0.149900
@<TRIPOS>BOND
     1     1     3 1   
     2     1    11 1   
     3     1    22 2   
     4     2     4 2   
     5     2    12 1   
     6     2    21 1   
     7     3    12 1   
     8     3    25 1   
     9     5     8 ar  
    10     5    17 ar  
    11     5    26 1   
    12     6     9 ar  
    13     6    17 ar  
    14     6    27 1   
    15     7    10 ar  
    16     7    18 ar  
    17     7    28 1   
    18     8    19 ar  
    19     8    29 1   
    20     9    19 ar  
    21     9    42 1   
    22    10    20 ar  
    23    10    30 1   
    24    11    13 1   
    25    11    21 1   
    26    11    31 1   
    27    12    14 1   
    28    12    32 1   
    29    13    17 1   
    30    13    33 1   
    31    13    34 1   
    32    14    18 1   
    33    14    35 1   
    34    14    36 1   
    35    15    16 ar  
    36    15    18 ar  
    37    15    37 1   
    38    16    20 ar  
    39    16    38 1   
    40    19    23 1   
    41    20    24 1   
    42    21    39 1   
    43    23    40 1   
    44    24    41 1   
@<TRIPOS>SUBSTRUCTURE
     1 R2H         1 TEMP              0 ****  ****    0 ROOT
