@<TRIPOS>MOLECULE
R2H
   42    44     1     0     0
SMALL
No Charge or Current Charge


@<TRIPOS>ATOM
      1 CA          -8.8230    20.6030     0.8240 c          1 R2H       0.568000
      2 CB          -8.4530    17.7320     0.1100 c          1 R2H       0.569000
      3 NB          -7.7170    20.1840     0.1210 ns         1 R2H      -0.496900
      4 OB          -8.3270    16.5550    -0.1910 o          1 R2H      -0.563000
      5 CD1        -10.7500    17.1050     3.5380 ca         1 R2H      -0.085000
      6 CD2        -12.4700    18.7810     3.1440 ca         1 R2H      -0.103000
      7 CD3         -6.2070    19.7590     2.9890 ca         1 R2H      -0.064000
      8 CE1        -11.7360    16.1810     3.9270 ca         1 R2H      -0.129000
      9 CE2        -13.4540    17.8570     3.5330 ca         1 R2H       0.071000
     10 CE3         -6.4540    19.8630     4.3690 ca         1 R2H      -0.180000
     11 CAA         -9.9000    19.5330     1.1740 c6         1 R2H       0.042700
     12 CAB         -7.3060    18.7700    -0.0750 c6         1 R2H       0.038700
     13 CBA        -10.0440    19.4110     2.7170 c3         1 R2H      -0.044100
     14 CBB         -6.0970    18.4010     0.8350 c3         1 R2H      -0.035100
     15 CD4         -6.7670    17.3920     3.0730 ca         1 R2H      -0.064000
     16 CE4         -7.0090    17.4990     4.4550 ca         1 R2H      -0.180000
     17 CGA        -11.1110    18.4100     3.1460 ca         1 R2H      -0.103300
     18 CGB         -6.3680    18.5220     2.3320 ca         1 R2H      -0.133300
     19 CZA        -13.0900    16.5530     3.9270 ca         1 R2H       0.115100
     20 CZB         -6.8540    18.7360     5.1000 ca         1 R2H       0.143100
     21 NA          -9.6640    18.2010     0.5620 ns         1 R2H      -0.494900
     22 OA          -8.9650    21.7860     1.0920 o          1 R2H      -0.557000
     23 OAX        -14.0400    15.6450     4.3070 oh         1 R2H      -0.524100
     24 OAY         -7.0900    18.8490     6.4370 oh         1 R2H      -0.530100
     25 H1          -7.0680    20.9150    -0.1460 hn         1 R2H       0.321500
     26 H2          -9.7050    16.8040     3.5380 ha         1 R2H       0.125000
     27 H3         -12.7660    19.7830     2.8410 ha         1 R2H       0.135000
     28 H4          -5.8930    20.6380     2.4310 ha         1 R2H       0.120000
     29 H5         -11.4500    15.1760     4.2280 ha         1 R2H       0.134000
     30 H6          -6.3330    20.8200     4.8700 ha         1 R2H       0.124500
     31 H7         -10.8450    19.9200     0.7690 h1         1 R2H       0.081700
     32 H8          -6.9870    18.6640    -1.1220 h1         1 R2H       0.082700
     33 H9          -9.0800    19.1320     3.1540 hc         1 R2H       0.075700
     34 H10        -10.2790    20.3950     3.1430 hc         1 R2H       0.075700
     35 H11         -5.7630    17.3820     0.6010 hc         1 R2H       0.064700
     36 H12         -5.2460    19.0410     0.5710 hc         1 R2H       0.064700
     37 H13         -6.8900    16.4300     2.5800 ha         1 R2H       0.120000
     38 H14         -7.3170    16.6190     5.0140 ha         1 R2H       0.124500
     39 H15        -10.4000    17.5080     0.6330 hn         1 R2H       0.328500
     40 H16        -14.9180    16.0820     4.2430 ho         1 R2H       0.479000
     41 H17         -7.3480    17.9680     6.7820 ho         1 R2H       0.467000
     42 FY         -14.7550    18.2280     3.5260 f          1 R2H      -0.185000
@<TRIPOS>BOND
     1     1     3 1   
     2     1    11 1   
     3     1    22 2   
     4     2     4 2   
     5     2    12 1   
     6     2    21 1   
     7     3    12 1   
     8     3    25 1   
     9     5     8 ar  
    10     5    17 ar  
    11     5    26 1   
    12     6     9 ar  
    13     6    17 ar  
    14     6    27 1   
    15     7    10 ar  
    16     7    18 ar  
    17     7    28 1   
    18     8    19 ar  
    19     8    29 1   
    20     9    19 ar  
    21     9    42 1   
    22    10    20 ar  
    23    10    30 1   
    24    11    13 1   
    25    11    21 1   
    26    11    31 1   
    27    12    14 1   
    28    12    32 1   
    29    13    17 1   
    30    13    33 1   
    31    13    34 1   
    32    14    18 1   
    33    14    35 1   
    34    14    36 1   
    35    15    16 ar  
    36    15    18 ar  
    37    15    37 1   
    38    16    20 ar  
    39    16    38 1   
    40    19    23 1   
    41    20    24 1   
    42    21    39 1   
    43    23    40 1   
    44    24    41 1   
@<TRIPOS>SUBSTRUCTURE
     1 R2H         1 TEMP              0 ****  ****    0 ROOT
