@<TRIPOS>MOLECULE
R2J
   26    27     1     0     0
SMALL
No Charge or Current Charge


@<TRIPOS>ATOM
      1 CAI         -9.4820     1.3910    29.1920 ca         1 R2J      -0.136000
      2 CAH        -10.3050     2.4330    28.7390 ca         1 R2J      -0.041200
      3 CAD        -10.9990     4.2410    27.6160 cc         1 R2J       0.350900
      4 CAC        -11.0080     5.4410    26.6780 c3         1 R2J       0.148500
      5 CAA        -11.6340     6.2830    24.4040 c3         1 R2J       0.143100
      6 CAJ         -8.1770     1.3140    28.6570 ca         1 R2J      -0.073000
      7 CAK         -7.7380     2.2620    27.7000 ca         1 R2J      -0.157000
      8 CAL         -8.5960     3.2980    27.2670 ca         1 R2J      -0.022000
      9 CAM         -9.8830     3.3430    27.8230 ca         1 R2J      -0.211900
     10 NAB        -11.5840     5.1390    25.3360 n7         1 R2J      -0.857400
     11 NAE        -12.0610     3.8950    28.3700 nd         1 R2J      -0.523100
     12 NAF        -11.6030     2.7730    29.0560 na         1 R2J       0.073600
     13 H1          -9.8310     0.6680    29.9250 ha         1 R2J       0.117000
     14 H2          -9.9760     5.8030    26.5750 h1         1 R2J       0.046200
     15 H3         -11.5790     6.2450    27.1620 h1         1 R2J       0.046200
     16 H4         -12.0630     5.9770    23.4400 h1         1 R2J       0.030033
     17 H5         -12.2530     7.0940    24.8110 h1         1 R2J       0.030033
     18 H6         -10.6270     6.6800    24.2170 h1         1 R2J       0.030033
     19 H7          -7.5070     0.5210    28.9810 ha         1 R2J       0.110000
     20 H8          -6.7320     2.1920    27.2930 ha         1 R2J       0.113000
     21 H9         -13.4230     2.4970    30.0960 h1         1 R2J       0.052700
     22 H10        -12.5470     0.9940    29.6800 h1         1 R2J       0.052700
     23 H11        -11.9500     2.0420    31.0020 h1         1 R2J       0.052700
     24 H12         -8.2690     4.0280    26.5290 ha         1 R2J       0.130000
     25 H13        -12.5440     4.7960    25.4760 hn         1 R2J       0.413000
     26 CAG        -12.4330     2.0310    30.0180 c3         1 R2J       0.081900
@<TRIPOS>BOND
     1     1     2 ar  
     2     1     6 ar  
     3     1    13 1   
     4     2     9 ar  
     5     2    12 1   
     6     3     4 1   
     7     3     9 1   
     8     3    11 2   
     9     4    10 1   
    10     4    14 1   
    11     4    15 1   
    12     5    10 1   
    13     5    16 1   
    14     5    17 1   
    15     5    18 1   
    16     6     7 ar  
    17     6    19 1   
    18     7     8 ar  
    19     7    20 1   
    20     8     9 ar  
    21     8    24 1   
    22    10    25 1   
    23    11    12 1   
    24    12    26 1   
    25    21    26 1   
    26    22    26 1   
    27    23    26 1   
@<TRIPOS>SUBSTRUCTURE
     1 R2J         1 TEMP              0 ****  ****    0 ROOT
