@<TRIPOS>MOLECULE
R2J
   26    27     1     0     0
SMALL
abcg2


@<TRIPOS>ATOM
      1 CAI         -9.4970     1.3900    29.0880 ca         1 R2J      -0.136000
      2 CAH        -10.3490     2.4370    28.7190 ca         1 R2J      -0.041200
      3 CAD        -11.1210     4.2510    27.6680 cc         1 R2J       0.350900
      4 CAC        -11.3110     5.4450    26.7970 c3         1 R2J       0.148500
      5 CAA        -11.3010     6.2530    24.5300 c3         1 R2J       0.143100
      6 CAJ         -8.2960     1.3030    28.4190 ca         1 R2J      -0.073000
      7 CAK         -7.9380     2.2210    27.4110 ca         1 R2J      -0.157000
      8 CAL         -8.7830     3.2470    27.0490 ca         1 R2J      -0.022000
      9 CAM        -10.0090     3.3620    27.7170 ca         1 R2J      -0.211900
     10 NAB        -11.1440     5.1030    25.3970 n7         1 R2J      -0.857400
     11 NAE        -12.0270     3.8860    28.5410 nd         1 R2J      -0.523100
     12 NAF        -11.5730     2.7980    29.1730 na         1 R2J       0.073600
     13 H1          -9.7620     0.6810    29.8610 ha         1 R2J       0.117000
     14 H2         -10.5570     6.1990    27.0470 h1         1 R2J       0.046200
     15 H3         -12.2880     5.8970    27.0250 h1         1 R2J       0.046200
     16 H4         -11.2340     5.9410    23.4890 h1         1 R2J       0.030033
     17 H5         -12.2510     6.7900    24.6620 h1         1 R2J       0.030033
     18 H6         -10.4950     6.9660    24.7130 h1         1 R2J       0.030033
     19 H7          -7.6060     0.5090    28.6740 ha         1 R2J       0.110000
     20 H8          -6.9830     2.1100    26.9140 ha         1 R2J       0.113000
     21 H9         -13.3200     2.6230    30.2490 h1         1 R2J       0.052700
     22 H10        -12.4300     1.1080    30.0540 h1         1 R2J       0.052700
     23 H11        -11.8550     2.3320    31.2000 h1         1 R2J       0.052700
     24 H12         -8.5120     3.9440    26.2680 ha         1 R2J       0.130000
     25 H13        -11.8330     4.4040    25.1470 hn         1 R2J       0.413000
     26 CAG        -12.3300     2.1790    30.2300 c3         1 R2J       0.081900
@<TRIPOS>BOND
     1     1     2 ar  
     2     1     6 ar  
     3     1    13 1   
     4     2     9 ar  
     5     2    12 1   
     6     3     4 1   
     7     3     9 1   
     8     3    11 2   
     9     4    10 1   
    10     4    14 1   
    11     4    15 1   
    12     5    10 1   
    13     5    16 1   
    14     5    17 1   
    15     5    18 1   
    16     6     7 ar  
    17     6    19 1   
    18     7     8 ar  
    19     7    20 1   
    20     8     9 ar  
    21     8    24 1   
    22    10    25 1   
    23    11    12 1   
    24    12    26 1   
    25    21    26 1   
    26    22    26 1   
    27    23    26 1   
@<TRIPOS>SUBSTRUCTURE
     1 R2J         1 TEMP              0 ****  ****    0 ROOT
