@<TRIPOS>MOLECULE
R2L
   41    43     1     0     0
SMALL
abcg2


@<TRIPOS>ATOM
      1 N1         -17.7680     4.0040    25.2250 nb         1 R2L      -0.621000
      2 C4         -19.4830     4.9330    26.6030 ca         1 R2L      -0.054000
      3 C5         -20.8290     4.8480    28.6600 c          1 R2L       0.597100
      4 C6         -22.2290     4.5140    29.1820 c6         1 R2L      -0.084400
      5 C7         -23.1160     5.7720    29.1390 c6         1 R2L      -0.106400
      6 C8         -22.7560     6.7040    30.2760 c6         1 R2L       0.158600
      7 C10        -22.4870     4.2610    32.9760 ca         1 R2L      -0.135000
      8 C13        -21.7830     2.6590    30.8250 ca         1 R2L      -0.056000
      9 C15        -18.9390     6.2100    26.5240 ca         1 R2L      -0.104300
     10 C12        -21.7440     2.1590    32.1140 ca         1 R2L       0.090000
     11 C11        -22.0980     2.9510    33.2000 ca         1 R2L      -0.062000
     12 C14        -22.1730     3.9770    30.5900 ca         1 R2L      -0.143300
     13 C9         -22.5220     4.7810    31.6800 ca         1 R2L       0.162100
     14 O1         -22.9360     6.0710    31.5560 os         1 R2L      -0.346100
     15 O          -19.9410     5.2850    29.3800 o          1 R2L      -0.568100
     16 N2         -20.6820     4.6750    27.3210 ns         1 R2L      -0.166000
     17 C3         -18.8770     3.8630    25.9420 ca         1 R2L       0.267900
     18 C2         -17.2040     5.2120    25.1630 ca         1 R2L       0.256900
     19 C16        -19.5840     7.4130    27.1370 c3         1 R2L      -0.041800
     20 C1         -17.7360     6.3490    25.7910 ca         1 R2L       0.280000
     21 N          -17.1470     7.5840    25.6630 nu         1 R2L      -0.958200
     22 C          -15.8340     7.7550    25.0730 c3         1 R2L       0.201100
     23 H1         -22.6660     3.7540    28.5320 hc         1 R2L       0.066700
     24 H2         -23.0030     6.2950    28.1880 hc         1 R2L       0.063700
     25 H3         -24.1620     5.4690    29.2300 hc         1 R2L       0.063700
     26 H4         -21.7170     7.0320    30.1960 h1         1 R2L       0.067200
     27 H5         -23.4030     7.5790    30.2960 h1         1 R2L       0.067200
     28 H6         -22.7680     4.8990    33.8040 ha         1 R2L       0.133000
     29 H7         -21.5130     2.0280    29.9870 ha         1 R2L       0.125000
     30 H8         -22.0680     2.5520    34.2040 ha         1 R2L       0.132000
     31 H9         -21.4090     4.1750    26.8320 hn         1 R2L       0.154000
     32 H10        -19.3170     2.8740    26.0050 h4         1 R2L       0.020100
     33 H11        -16.2930     5.2870    24.5840 h4         1 R2L       0.021100
     34 H12        -19.6100     8.2370    26.4190 hc         1 R2L       0.046367
     35 H13        -20.6010     7.2030    27.4540 hc         1 R2L       0.046367
     36 H14        -19.0260     7.7580    28.0120 hc         1 R2L       0.046367
     37 H15        -17.3890     8.2610    26.3680 hn         1 R2L       0.477000
     38 H16        -15.5610     8.8060    25.1440 h1         1 R2L       0.038700
     39 H17        -15.0630     7.1580    25.5760 h1         1 R2L       0.038700
     40 H18        -15.8430     7.4760    24.0170 h1         1 R2L       0.038700
     41 CL         -21.2470     0.4970    32.3830 cl         1 R2L      -0.213000
@<TRIPOS>BOND
     1     1    17 ar  
     2     1    18 ar  
     3     2     9 ar  
     4     2    16 1   
     5     2    17 ar  
     6     3     4 1   
     7     3    15 2   
     8     3    16 1   
     9     4     5 1   
    10     4    12 1   
    11     4    23 1   
    12     5     6 1   
    13     5    24 1   
    14     5    25 1   
    15     6    14 1   
    16     6    26 1   
    17     6    27 1   
    18     7    11 ar  
    19     7    13 ar  
    20     7    28 1   
    21     8    10 ar  
    22     8    12 ar  
    23     8    29 1   
    24     9    19 1   
    25     9    20 ar  
    26    10    11 ar  
    27    10    41 1   
    28    11    30 1   
    29    12    13 ar  
    30    13    14 1   
    31    16    31 1   
    32    17    32 1   
    33    18    20 ar  
    34    18    33 1   
    35    19    34 1   
    36    19    35 1   
    37    19    36 1   
    38    20    21 1   
    39    21    22 1   
    40    21    37 1   
    41    22    38 1   
    42    22    39 1   
    43    22    40 1   
@<TRIPOS>SUBSTRUCTURE
     1 R2L         1 TEMP              0 ****  ****    0 ROOT
