@<TRIPOS>MOLECULE
R2L
   41    43     1     0     0
SMALL
No Charge or Current Charge


@<TRIPOS>ATOM
      1 N1         -17.8590     3.9810    25.0070 nb         1 R2L      -0.621000
      2 C4         -19.4560     4.9290    26.5790 ca         1 R2L      -0.054000
      3 C5         -20.8040     4.8650    28.7320 c          1 R2L       0.597100
      4 C6         -22.2240     4.5130    29.2430 c6         1 R2L      -0.084400
      5 C7         -23.1910     5.7170    29.1100 c6         1 R2L      -0.106400
      6 C8         -22.9730     6.6870    30.2890 c6         1 R2L       0.158600
      7 C10        -22.6880     4.2320    33.0580 ca         1 R2L      -0.135000
      8 C13        -21.7100     2.6720    30.9330 ca         1 R2L      -0.056000
      9 C15        -18.8110     6.1970    26.5370 ca         1 R2L      -0.104300
     10 C12        -21.7000     2.1640    32.2430 ca         1 R2L       0.090000
     11 C11        -22.1900     2.9410    33.3060 ca         1 R2L      -0.062000
     12 C14        -22.2060     3.9660    30.6780 ca         1 R2L      -0.143300
     13 C9         -22.6890     4.7510    31.7530 ca         1 R2L       0.162100
     14 O1         -23.2030     6.0170    31.5480 os         1 R2L      -0.346100
     15 O          -19.9070     5.2230    29.4890 o          1 R2L      -0.568100
     16 N2         -20.6040     4.6710    27.3740 ns         1 R2L      -0.166000
     17 C3         -18.9540     3.8740    25.7870 ca         1 R2L       0.267900
     18 C2         -17.2220     5.1770    24.9940 ca         1 R2L       0.256900
     19 C16        -19.3660     7.4100    27.2990 c3         1 R2L      -0.041800
     20 C1         -17.6470     6.3190    25.7320 ca         1 R2L       0.280000
     21 N          -16.9430     7.5440    25.6760 nu         1 R2L      -0.958200
     22 C          -15.7320     7.8410    24.8870 c3         1 R2L       0.201100
     23 H1         -22.6260     3.7620    28.5480 hc         1 R2L       0.066700
     24 H2         -23.0460     6.2370    28.1520 hc         1 R2L       0.063700
     25 H3         -24.2320     5.3660    29.1230 hc         1 R2L       0.063700
     26 H4         -21.9420     7.0700    30.2750 h1         1 R2L       0.067200
     27 H5         -23.6540     7.5460    30.2120 h1         1 R2L       0.067200
     28 H6         -23.0710     4.8340    33.8780 ha         1 R2L       0.133000
     29 H7         -21.3340     2.0570    30.1180 ha         1 R2L       0.125000
     30 H8         -22.1860     2.5420    34.3170 ha         1 R2L       0.132000
     31 H9         -21.3960     4.2890    26.8710 hn         1 R2L       0.154000
     32 H10        -19.4430     2.9000    25.7930 h4         1 R2L       0.020100
     33 H11        -16.3380     5.2250    24.3600 h4         1 R2L       0.021100
     34 H12        -19.2680     8.3350    26.7190 hc         1 R2L       0.046367
     35 H13        -20.4350     7.3120    27.5190 hc         1 R2L       0.046367
     36 H14        -18.8390     7.5530    28.2490 hc         1 R2L       0.046367
     37 H15        -17.3070     8.2970    26.2650 hn         1 R2L       0.477000
     38 H16        -15.4150     8.8800    25.0470 h1         1 R2L       0.038700
     39 H17        -14.9080     7.1780    25.1830 h1         1 R2L       0.038700
     40 H18        -15.9270     7.7000    23.8150 h1         1 R2L       0.038700
     41 Cl         -21.0790     0.5470    32.5520 cl         1 R2L      -0.213000
@<TRIPOS>BOND
     1     1    17 ar  
     2     1    18 ar  
     3     2     9 ar  
     4     2    16 1   
     5     2    17 ar  
     6     3     4 1   
     7     3    15 2   
     8     3    16 1   
     9     4     5 1   
    10     4    12 1   
    11     4    23 1   
    12     5     6 1   
    13     5    24 1   
    14     5    25 1   
    15     6    14 1   
    16     6    26 1   
    17     6    27 1   
    18     7    11 ar  
    19     7    13 ar  
    20     7    28 1   
    21     8    10 ar  
    22     8    12 ar  
    23     8    29 1   
    24     9    19 1   
    25     9    20 ar  
    26    10    11 ar  
    27    10    41 1   
    28    11    30 1   
    29    12    13 ar  
    30    13    14 1   
    31    16    31 1   
    32    17    32 1   
    33    18    20 ar  
    34    18    33 1   
    35    19    34 1   
    36    19    35 1   
    37    19    36 1   
    38    20    21 1   
    39    21    22 1   
    40    21    37 1   
    41    22    38 1   
    42    22    39 1   
    43    22    40 1   
@<TRIPOS>SUBSTRUCTURE
     1 R2L         1 TEMP              0 ****  ****    0 ROOT
