@<TRIPOS>MOLECULE
R2N
   21    22     1     0     0
SMALL
No Charge or Current Charge


@<TRIPOS>ATOM
      1 C1          17.0910     7.6940   -19.3460 c3         1 R2N       0.060900
      2 N2          16.1900     8.8530   -19.4910 na         1 R2N      -0.070700
      3 C3          16.1870    10.0500   -18.7300 cc         1 R2N      -0.066300
      4 C4          15.1610    10.8020   -19.3030 cd         1 R2N      -0.263200
      5 C5          14.5340    10.0850   -20.3810 ca         1 R2N      -0.090800
      6 C6          13.4720    10.4270   -21.2260 ca         1 R2N      -0.048000
      7 C7          13.0800     9.4770   -22.1920 ca         1 R2N      -0.039900
      8 Br8         11.6360     9.8720   -23.3810 br         1 R2N      -0.182100
      9 C9          13.7430     8.2300   -22.2840 ca         1 R2N      -0.111000
     10 C10         14.8110     7.9210   -21.4120 ca         1 R2N      -0.121000
     11 C11         15.1880     8.8870   -20.4620 ca         1 R2N      -0.066200
     12 C12         17.0280    10.4960   -17.5720 c          1 R2N       0.721200
     13 O13         17.8890     9.7450   -17.1360 o          1 R2N      -0.706500
     14 O14         16.8230    11.6020   -17.0890 o          1 R2N      -0.706500
     15 H1          18.0820     8.0290   -19.0170 h1         1 R2N       0.050367
     16 H1A         17.2090     7.1780   -20.3060 h1         1 R2N       0.050367
     17 H1B         16.6770     6.9980   -18.6060 h1         1 R2N       0.050367
     18 H4          14.8730    11.7950   -18.9650 ha         1 R2N       0.211000
     19 H6          12.9680    11.3870   -21.1390 ha         1 R2N       0.118000
     20 H9          13.4300     7.5030   -23.0300 ha         1 R2N       0.106000
     21 H10         15.3160     6.9610   -21.4820 ha         1 R2N       0.104000
@<TRIPOS>BOND
     1     1     2 1   
     2     1    15 1   
     3     1    16 1   
     4     1    17 1   
     5     2     3 1   
     6     2    11 1   
     7     3     4 2   
     8     3    12 1   
     9     4     5 1   
    10     4    18 1   
    11     5     6 ar  
    12     5    11 ar  
    13     6     7 ar  
    14     6    19 1   
    15     7     8 1   
    16     7     9 ar  
    17     9    10 ar  
    18     9    20 1   
    19    10    11 ar  
    20    10    21 1   
    21    12    13 1   
    22    12    14 1   
@<TRIPOS>SUBSTRUCTURE
     1 R2N         1 TEMP              0 ****  ****    0 ROOT
