@<TRIPOS>MOLECULE
R2N
   21    22     1     0     0
SMALL
abcg2


@<TRIPOS>ATOM
      1 C1          17.0120     7.7050   -19.2600 c3         1 R2N       0.060900
      2 N2          16.1910     8.8770   -19.5150 na         1 R2N      -0.070700
      3 C3          16.1520    10.0670   -18.7970 cc         1 R2N      -0.066300
      4 C4          15.1370    10.8560   -19.2920 cd         1 R2N      -0.263200
      5 C5          14.5150    10.1440   -20.3580 ca         1 R2N      -0.090800
      6 C6          13.4560    10.4250   -21.2330 ca         1 R2N      -0.048000
      7 C7          13.1120     9.4560   -22.1540 ca         1 R2N      -0.039900
      8 BR8         11.6610     9.8060   -23.3710 br         1 R2N      -0.182100
      9 C9          13.7690     8.2200   -22.2470 ca         1 R2N      -0.111000
     10 C10         14.8200     7.9300   -21.3910 ca         1 R2N      -0.121000
     11 C11         15.1940     8.8990   -20.4590 ca         1 R2N      -0.066200
     12 C12         17.1280    10.4550   -17.7060 c          1 R2N       0.721200
     13 O13         18.2760     9.9410   -17.7380 o          1 R2N      -0.706500
     14 O14         16.7040    11.2940   -16.8750 o          1 R2N      -0.706500
     15 H1          17.7310     7.9510   -18.4880 h1         1 R2N       0.050367
     16 H1A         17.5440     7.4180   -20.1680 h1         1 R2N       0.050367
     17 H1B         16.3860     6.8680   -18.9420 h1         1 R2N       0.050367
     18 H4          14.8890    11.8410   -18.9330 ha         1 R2N       0.211000
     19 H6          12.9240    11.3650   -21.1830 ha         1 R2N       0.118000
     20 H9          13.4550     7.4950   -22.9850 ha         1 R2N       0.106000
     21 H10         15.3320     6.9790   -21.4570 ha         1 R2N       0.104000
@<TRIPOS>BOND
     1     1     2 1   
     2     1    15 1   
     3     1    16 1   
     4     1    17 1   
     5     2     3 1   
     6     2    11 1   
     7     3     4 2   
     8     3    12 1   
     9     4     5 1   
    10     4    18 1   
    11     5     6 ar  
    12     5    11 ar  
    13     6     7 ar  
    14     6    19 1   
    15     7     8 1   
    16     7     9 ar  
    17     9    10 ar  
    18     9    20 1   
    19    10    11 ar  
    20    10    21 1   
    21    12    13 1   
    22    12    14 1   
@<TRIPOS>SUBSTRUCTURE
     1 R2N         1 TEMP              0 ****  ****    0 ROOT
