@<TRIPOS>MOLECULE
R2P
   18    18     1     0     0
SMALL
No Charge or Current Charge


@<TRIPOS>ATOM
      1 ND1         -1.2960     3.4050    17.2760 nc         1 R2P      -0.486100
      2 N           -1.2550     1.5340    13.8710 n8         1 R2P      -0.847800
      3 CA          -0.8500     0.9760    15.2160 c3         1 R2P       0.022500
      4 C           -0.2870    -0.5130    15.2290 c          1 R2P       0.935600
      5 OD2          0.5500     4.7130    14.4840 oh         1 R2P      -0.586300
      6 CD2         -0.2500     4.5450    15.5580 cd         1 R2P       0.479300
      7 NE2         -0.8870     5.5860    16.0340 nc         1 R2P      -0.565100
      8 SE1         -1.7650     5.0170    17.3490 ss         1 R2P       0.343200
      9 CG          -0.4750     3.3050    16.2470 cd         1 R2P       0.233300
     10 CB           0.1290     1.9550    15.9220 c3         1 R2P      -0.140700
     11 O            0.7770    -0.7500    14.6610 o          1 R2P      -0.825300
     12 OXT         -0.9570    -1.3920    15.7650 o          1 R2P      -0.825300
     13 HA          -1.7630     0.9430    15.8260 h1         1 R2P       0.057700
     14 HOD2         0.9430     3.8390    14.2960 ho         1 R2P       0.451000
     15 HB           0.4610     1.4880    16.8580 hc         1 R2P       0.065700
     16 HBA          1.0370     2.0650    15.3180 hc         1 R2P       0.065700
     17 H           -1.5540     2.5090    13.9620 hn         1 R2P       0.310800
     18 H2          -0.4450     1.5460    13.2430 hn         1 R2P       0.310800
@<TRIPOS>BOND
     1     1     8 1   
     2     1     9 2   
     3     2     3 1   
     4     2    17 1   
     5     2    18 1   
     6     3     4 1   
     7     3    10 1   
     8     3    13 1   
     9     4    11 1   
    10     4    12 1   
    11     5     6 1   
    12     5    14 1   
    13     6     7 2   
    14     6     9 1   
    15     7     8 1   
    16     9    10 1   
    17    10    15 1   
    18    10    16 1   
@<TRIPOS>SUBSTRUCTURE
     1 R2P         1 TEMP              0 ****  ****    0 ROOT
