@<TRIPOS>MOLECULE
R2P
   18    18     1     0     0
SMALL
bcc


@<TRIPOS>ATOM
      1 ND1         -1.9180     3.5070    15.9500 nc         1 R2P      -0.486100
      2 N           -1.5400     1.2100    13.8400 n8         1 R2P      -0.847800
      3 CA          -0.9100     0.9270    15.1190 c3         1 R2P       0.022500
      4 C           -0.1850    -0.4500    15.1400 c          1 R2P       0.935600
      5 OD2          1.4010     4.7300    16.1340 oh         1 R2P      -0.586300
      6 CD2          0.0810     4.5780    16.1440 cd         1 R2P       0.479300
      7 NE2         -0.6820     5.5940    16.4000 nc         1 R2P      -0.565100
      8 SE1         -2.2390     5.0740    16.3280 ss         1 R2P       0.343200
      9 CG          -0.6300     3.3430    15.8810 cd         1 R2P       0.233300
     10 CB           0.0360     2.0350    15.6040 c3         1 R2P      -0.140700
     11 O           -0.3800    -1.2250    14.1900 o          1 R2P      -0.825300
     12 OXT          0.5190    -0.6640    16.1500 o          1 R2P      -0.825300
     13 HA          -1.7260     0.8470    15.8490 h1         1 R2P       0.057700
     14 HOD2         1.8520     3.8960    15.9520 ho         1 R2P       0.451000
     15 HB           0.5500     1.7130    16.5130 hc         1 R2P       0.065700
     16 HBA          0.8140     2.1880    14.8440 hc         1 R2P       0.065700
     17 H           -2.0970     2.0510    13.9310 hn         1 R2P       0.310800
     18 H2          -0.8320     1.4170    13.1460 hn         1 R2P       0.310800
@<TRIPOS>BOND
     1     1     8 1   
     2     1     9 2   
     3     2     3 1   
     4     2    17 1   
     5     2    18 1   
     6     3     4 1   
     7     3    10 1   
     8     3    13 1   
     9     4    11 1   
    10     4    12 1   
    11     5     6 1   
    12     5    14 1   
    13     6     7 2   
    14     6     9 1   
    15     7     8 1   
    16     9    10 1   
    17    10    15 1   
    18    10    16 1   
@<TRIPOS>SUBSTRUCTURE
     1 R2P         1 TEMP              0 ****  ****    0 ROOT
