@<TRIPOS>MOLECULE
R2Q
   36    39     1     0     0
SMALL
No Charge or Current Charge


@<TRIPOS>ATOM
      1 C02         17.0710   -31.9170    -6.7510 cc         1 R2Q       0.132400
      2 C03         17.4660   -33.1950    -7.0790 cd         1 R2Q      -0.270100
      3 C05         17.3070   -34.4490    -9.1900 cc         1 R2Q      -0.095000
      4 C06         16.8820   -34.3330   -10.5230 cd         1 R2Q      -0.071000
      5 C07         16.2380   -33.1000   -10.9550 cd         1 R2Q      -0.099000
      6 C08         16.0900   -32.0500   -10.0770 cc         1 R2Q      -0.071000
      7 C09         16.5270   -32.1240    -8.7830 cd         1 R2Q      -0.075000
      8 C10         17.2470   -31.3630    -5.3990 ca         1 R2Q      -0.022800
      9 C11         18.1280   -31.9580    -4.4660 ca         1 R2Q      -0.088000
     10 C12         18.3040   -31.3990    -3.1870 ca         1 R2Q      -0.116500
     11 C13         17.6110   -30.2330    -2.8250 ca         1 R2Q      -0.104000
     12 C14         16.7470   -29.6220    -3.7460 ca         1 R2Q      -0.116500
     13 C15         16.5700   -30.1800    -5.0250 ca         1 R2Q      -0.088000
     14 C16         17.0220   -35.4910   -11.4530 ca         1 R2Q      -0.030000
     15 C17         17.2860   -36.7970   -10.9660 ca         1 R2Q      -0.069000
     16 C18         17.4190   -37.8920   -11.8420 ca         1 R2Q      -0.014000
     17 C19         17.2940   -37.6990   -13.2280 ca         1 R2Q      -0.067000
     18 C20         17.0380   -36.4160   -13.7300 ca         1 R2Q      -0.112000
     19 C21         16.9030   -35.3250   -12.8550 ca         1 R2Q      -0.077000
     20 C22         17.6770   -39.2060   -11.3200 cg         1 R2Q       0.320000
     21 N01         16.4830   -31.2530    -7.7950 nc         1 R2Q      -0.286600
     22 N04         17.1090   -33.3140    -8.4070 na         1 R2Q       0.134100
     23 N23         17.8870   -40.2700   -10.8870 n1         1 R2Q      -0.445000
     24 H151        17.9340   -33.9870    -6.5090 h4         1 R2Q       0.233000
     25 H171        17.7930   -35.2910    -8.7200 h4         1 R2Q       0.147000
     26 H101        15.8470   -32.9810   -11.9580 ha         1 R2Q       0.126000
     27 H111        15.6090   -31.1390   -10.4200 ha         1 R2Q       0.146000
     28 H191        18.6900   -32.8520    -4.7230 ha         1 R2Q       0.120000
     29 H201        18.9820   -31.8690    -2.4780 ha         1 R2Q       0.112000
     30 H211        17.7490   -29.8010    -1.8360 ha         1 R2Q       0.112000
     31 H221        16.2130   -28.7150    -3.4710 ha         1 R2Q       0.112000
     32 H231        15.8970   -29.6900    -5.7240 ha         1 R2Q       0.120000
     33 H081        17.3660   -36.9860    -9.9000 ha         1 R2Q       0.126000
     34 H041        17.3970   -38.5380   -13.9140 ha         1 R2Q       0.129000
     35 H051        16.9490   -36.2630   -14.8040 ha         1 R2Q       0.124000
     36 H061        16.7340   -34.3480   -13.2940 ha         1 R2Q       0.122000
@<TRIPOS>BOND
     1     1     2 2   
     2     1     8 1   
     3     1    21 1   
     4     2    22 1   
     5     2    24 1   
     6     3     4 2   
     7     3    22 1   
     8     3    25 1   
     9     4     5 1   
    10     4    14 1   
    11     5     6 2   
    12     5    26 1   
    13     6     7 1   
    14     6    27 1   
    15     7    21 2   
    16     7    22 1   
    17     8     9 ar  
    18     8    13 ar  
    19     9    10 ar  
    20     9    28 1   
    21    10    11 ar  
    22    10    29 1   
    23    11    12 ar  
    24    11    30 1   
    25    12    13 ar  
    26    12    31 1   
    27    13    32 1   
    28    14    15 ar  
    29    14    19 ar  
    30    15    16 ar  
    31    15    33 1   
    32    16    17 ar  
    33    16    20 1   
    34    17    18 ar  
    35    17    34 1   
    36    18    19 ar  
    37    18    35 1   
    38    19    36 1   
    39    20    23 3   
@<TRIPOS>SUBSTRUCTURE
     1 R2Q         1 TEMP              0 ****  ****    0 ROOT
