@<TRIPOS>MOLECULE
R2Q
   36    39     1     0     0
SMALL
abcg2


@<TRIPOS>ATOM
      1 C02         17.1250   -32.0290    -6.6810 cc         1 R2Q       0.132400
      2 C03         17.6470   -33.2340    -7.0940 cd         1 R2Q      -0.270100
      3 C05         17.3930   -34.4300    -9.2450 cc         1 R2Q      -0.095000
      4 C06         16.8190   -34.3880   -10.4800 cd         1 R2Q      -0.071000
      5 C07         16.0170   -33.2620   -10.8300 cd         1 R2Q      -0.099000
      6 C08         15.8130   -32.2440    -9.9500 cc         1 R2Q      -0.071000
      7 C09         16.4080   -32.3060    -8.6740 cd         1 R2Q      -0.075000
      8 C10         17.3070   -31.3750    -5.3840 ca         1 R2Q      -0.022800
      9 C11         18.1910   -31.8870    -4.4320 ca         1 R2Q      -0.088000
     10 C12         18.3530   -31.2590    -3.2070 ca         1 R2Q      -0.116500
     11 C13         17.6350   -30.1080    -2.9090 ca         1 R2Q      -0.104000
     12 C14         16.7540   -29.5900    -3.8500 ca         1 R2Q      -0.116500
     13 C15         16.5920   -30.2160    -5.0770 ca         1 R2Q      -0.088000
     14 C16         17.0270   -35.4940   -11.4330 ca         1 R2Q      -0.030000
     15 C17         17.0440   -36.8140   -10.9950 ca         1 R2Q      -0.069000
     16 C18         17.2540   -37.8490   -11.9030 ca         1 R2Q      -0.014000
     17 C19         17.4350   -37.5880   -13.2600 ca         1 R2Q      -0.067000
     18 C20         17.4060   -36.2750   -13.6960 ca         1 R2Q      -0.112000
     19 C21         17.2060   -35.2390   -12.7940 ca         1 R2Q      -0.077000
     20 C22         17.2690   -39.1970   -11.4300 cg         1 R2Q       0.320000
     21 N01         16.3660   -31.4680    -7.6600 nc         1 R2Q      -0.286600
     22 N04         17.1860   -33.4110    -8.3690 na         1 R2Q       0.134100
     23 N23         17.2820   -40.2820   -11.0450 n1         1 R2Q      -0.445000
     24 H151        18.2750   -33.9640    -6.6120 h4         1 R2Q       0.233000
     25 H171        18.0370   -35.2300    -8.9070 h4         1 R2Q       0.147000
     26 H101        15.5440   -33.2290   -11.8020 ha         1 R2Q       0.126000
     27 H111        15.1960   -31.3920   -10.1990 ha         1 R2Q       0.146000
     28 H191        18.7650   -32.7810    -4.6450 ha         1 R2Q       0.120000
     29 H201        19.0450   -31.6700    -2.4830 ha         1 R2Q       0.112000
     30 H211        17.7620   -29.6180    -1.9530 ha         1 R2Q       0.112000
     31 H221        16.1900   -28.6940    -3.6280 ha         1 R2Q       0.112000
     32 H231        15.9030   -29.8060    -5.8030 ha         1 R2Q       0.120000
     33 H081        16.8760   -37.0470    -9.9520 ha         1 R2Q       0.126000
     34 H041        17.5930   -38.3990   -13.9570 ha         1 R2Q       0.129000
     35 H051        17.5470   -36.0540   -14.7450 ha         1 R2Q       0.124000
     36 H061        17.2060   -34.2190   -13.1570 ha         1 R2Q       0.122000
@<TRIPOS>BOND
     1     1     2 2   
     2     1     8 1   
     3     1    21 1   
     4     2    22 1   
     5     2    24 1   
     6     3     4 2   
     7     3    22 1   
     8     3    25 1   
     9     4     5 1   
    10     4    14 1   
    11     5     6 2   
    12     5    26 1   
    13     6     7 1   
    14     6    27 1   
    15     7    21 2   
    16     7    22 1   
    17     8     9 ar  
    18     8    13 ar  
    19     9    10 ar  
    20     9    28 1   
    21    10    11 ar  
    22    10    29 1   
    23    11    12 ar  
    24    11    30 1   
    25    12    13 ar  
    26    12    31 1   
    27    13    32 1   
    28    14    15 ar  
    29    14    19 ar  
    30    15    16 ar  
    31    15    33 1   
    32    16    17 ar  
    33    16    20 1   
    34    17    18 ar  
    35    17    34 1   
    36    18    19 ar  
    37    18    35 1   
    38    19    36 1   
    39    20    23 3   
@<TRIPOS>SUBSTRUCTURE
     1 R2Q         1 TEMP              0 ****  ****    0 ROOT
