@<TRIPOS>MOLECULE
R2S
   32    35     1     0     0
SMALL
bcc


@<TRIPOS>ATOM
      1 CL1         -6.1730    -1.5800     0.6410 cl         1 R2S      -0.105400
      2 C02         -4.7980    -0.7200     0.0320 ca         1 R2S       0.028400
      3 C03         -3.8500    -0.2580     0.9260 ca         1 R2S      -0.077000
      4 C04         -2.7700     0.4320     0.3950 ca         1 R2S      -0.083100
      5 C05         -2.6250     0.6490    -0.9830 ca         1 R2S       0.117400
      6 C06         -3.6000     0.1700    -1.8550 ca         1 R2S      -0.072000
      7 C07         -4.6860    -0.5140    -1.3440 ca         1 R2S      -0.118000
      8 N08         -1.4870     1.3250    -1.3470 nc         1 R2S      -0.583100
      9 C09         -0.7910     1.6320    -0.3120 cd         1 R2S       0.588100
     10 N10          0.3670     2.3670    -0.4280 nu         1 R2S      -0.754100
     11 S11          1.6630     2.2590     0.6160 sy         1 R2S       1.350800
     12 O12          2.5680     3.3080     0.2120 o          1 R2S      -0.587800
     13 O13          1.0870     2.1940     1.9440 o          1 R2S      -0.587800
     14 C14          2.4120     0.7210     0.2900 cc         1 R2S      -0.336500
     15 C15          3.4480     0.5190    -0.5580 cd         1 R2S       0.040800
     16 C16          3.7940    -0.8640    -0.6380 ca         1 R2S      -0.110800
     17 C17          4.8080    -1.4690    -1.3930 ca         1 R2S      -0.069000
     18 C18          4.9710    -2.8340    -1.3210 ca         1 R2S      -0.138000
     19 C19          4.1390    -3.6150    -0.5040 ca         1 R2S      -0.093000
     20 C20          3.1340    -3.0440     0.2510 ca         1 R2S      -0.112000
     21 C21          2.9690    -1.6620     0.1750 ca         1 R2S      -0.011100
     22 S22          1.7960    -0.7190     1.0330 ss         1 R2S       0.057500
     23 S23         -1.4310     1.1370     1.2430 ss         1 R2S      -0.005100
     24 H1          -3.9510    -0.4230     1.9900 ha         1 R2S       0.158000
     25 H2          -3.5030     0.3300    -2.9200 ha         1 R2S       0.154000
     26 H3          -5.4490    -0.8910    -2.0100 ha         1 R2S       0.152000
     27 H4           0.6110     2.6080    -1.3850 hn         1 R2S       0.463800
     28 H5           3.9540     1.3020    -1.1050 ha         1 R2S       0.172000
     29 H6           5.4480    -0.8630    -2.0200 ha         1 R2S       0.140000
     30 H7           5.7500    -3.3150    -1.8970 ha         1 R2S       0.138000
     31 H8           4.2880    -4.6860    -0.4630 ha         1 R2S       0.137000
     32 H9           2.4970    -3.6500     0.8800 ha         1 R2S       0.146000
@<TRIPOS>BOND
     1     1     2 1   
     2     2     3 ar  
     3     2     7 ar  
     4     3     4 ar  
     5     3    24 1   
     6     4     5 ar  
     7     4    23 1   
     8     5     6 ar  
     9     5     8 1   
    10     6     7 ar  
    11     6    25 1   
    12     7    26 1   
    13     8     9 2   
    14     9    10 1   
    15     9    23 1   
    16    10    11 1   
    17    10    27 1   
    18    11    12 2   
    19    11    13 2   
    20    11    14 1   
    21    14    15 2   
    22    14    22 1   
    23    15    16 1   
    24    15    28 1   
    25    16    17 ar  
    26    16    21 ar  
    27    17    18 ar  
    28    17    29 1   
    29    18    19 ar  
    30    18    30 1   
    31    19    20 ar  
    32    19    31 1   
    33    20    21 ar  
    34    20    32 1   
    35    21    22 1   
@<TRIPOS>SUBSTRUCTURE
     1 R2S         1 TEMP              0 ****  ****    0 ROOT
