@<TRIPOS>MOLECULE
R2S
   32    35     1     0     0
SMALL
No Charge or Current Charge


@<TRIPOS>ATOM
      1 Cl1         -4.7720    -2.7670    -0.2510 cl         1 R2S      -0.197000
      2 C02         -3.6620    -1.4310    -0.5310 ca         1 R2S       0.120000
      3 C03         -2.9360    -0.8840     0.5430 ca         1 R2S      -0.059000
      4 C04         -2.0580     0.1810     0.2850 ca         1 R2S      -0.210000
      5 C05         -1.8860     0.7050    -0.9870 ca         1 R2S       0.117400
      6 C06         -2.6130     0.1610    -2.0600 ca         1 R2S      -0.054000
      7 C07         -3.5020    -0.9100    -1.8300 ca         1 R2S      -0.100000
      8 N08         -0.9860     1.7580    -1.1270 nc         1 R2S      -0.583100
      9 C09         -0.4860     1.9720     0.0860 cd         1 R2S       0.588100
     10 N10          0.4050     2.9720     0.1620 nu         1 R2S      -0.809300
     11 S11          1.8790     2.7810     0.9050 sy         1 R2S       1.209200
     12 O12          2.7570     3.6550     0.1250 o          1 R2S      -0.517000
     13 O13          1.6210     2.9650     2.3340 o          1 R2S      -0.517000
     14 C14          2.2670     1.0800     0.5520 cc         1 R2S      -0.336500
     15 C15          2.5570     0.5440    -0.6900 cd         1 R2S      -0.009200
     16 C16          2.8140    -0.8760    -0.6790 ca         1 R2S      -0.110800
     17 C17          3.1180    -1.6980    -1.7750 ca         1 R2S      -0.051000
     18 C18          3.3280    -3.0720    -1.5460 ca         1 R2S      -0.120000
     19 C19          3.2330    -3.5970    -0.2380 ca         1 R2S      -0.075000
     20 C20          2.9270    -2.7500     0.8470 ca         1 R2S      -0.094000
     21 C21          2.7200    -1.3840     0.6000 ca         1 R2S      -0.138000
     22 S22          2.3290    -0.1540     1.8380 ss         1 R2S       0.184400
     23 S23         -1.0670     1.0070     1.4740 ss         1 R2S       0.121800
     24 H1          -3.0560    -1.2810     1.5490 ha         1 R2S       0.140000
     25 H2          -2.4880     0.5630    -3.0620 ha         1 R2S       0.136000
     26 H3          -4.0650    -1.3350    -2.6570 ha         1 R2S       0.134000
     27 H4           0.6280     3.3280    -0.7520 hn         1 R2S       0.519000
     28 H5           2.5800     1.1390    -1.6020 ha         1 R2S       0.222000
     29 H6           3.1870    -1.2860    -2.7800 ha         1 R2S       0.122000
     30 H7           3.5650    -3.7300    -2.3790 ha         1 R2S       0.120000
     31 H8           3.3970    -4.6590    -0.0660 ha         1 R2S       0.119000
     32 H9           2.8540    -3.1500     1.8570 ha         1 R2S       0.128000
@<TRIPOS>BOND
     1     1     2 1   
     2     2     3 ar  
     3     2     7 ar  
     4     3     4 ar  
     5     3    24 1   
     6     4     5 ar  
     7     4    23 1   
     8     5     6 ar  
     9     5     8 1   
    10     6     7 ar  
    11     6    25 1   
    12     7    26 1   
    13     8     9 2   
    14     9    10 1   
    15     9    23 1   
    16    10    11 1   
    17    10    27 1   
    18    11    12 2   
    19    11    13 2   
    20    11    14 1   
    21    14    15 2   
    22    14    22 1   
    23    15    16 1   
    24    15    28 1   
    25    16    17 ar  
    26    16    21 ar  
    27    17    18 ar  
    28    17    29 1   
    29    18    19 ar  
    30    18    30 1   
    31    19    20 ar  
    32    19    31 1   
    33    20    21 ar  
    34    20    32 1   
    35    21    22 1   
@<TRIPOS>SUBSTRUCTURE
     1 R2S         1 TEMP              0 ****  ****    0 ROOT
