@<TRIPOS>MOLECULE
R2T
   21    20     1     0     0
SMALL
bcc


@<TRIPOS>ATOM
      1 N           16.7530   -99.2490     1.1210 n8         1 R2T      -0.873800
      2 CA          16.3040  -100.3040     0.2260 c3         1 R2T       0.032500
      3 C           15.6810   -99.7720    -1.0930 c          1 R2T       0.914600
      4 O           15.1890  -100.6360    -1.8470 o          1 R2T      -0.834300
      5 CB          15.3730  -101.3160     0.9160 c3         1 R2T       0.189100
      6 CG          13.9140  -100.8530     1.0630 c3         1 R2T       0.048100
      7 CD          13.1750  -101.8760     1.9250 c          1 R2T       0.627100
      8 OE1         13.0110  -103.0220     1.5230 o          1 R2T      -0.643100
      9 NE2         12.7540  -101.4390     3.1160 nt         1 R2T      -0.672000
     10 OG1         13.8400   -99.5460     1.5740 oh         1 R2T      -0.553800
     11 OB1         15.9400  -101.6560     2.1680 oh         1 R2T      -0.594800
     12 H           17.7550   -99.3000     1.2350 hn         1 R2T       0.331300
     13 HA          17.1700  -100.9020    -0.0920 h1         1 R2T       0.015700
     14 HB2         15.3300  -102.1990     0.2710 h1         1 R2T       0.053700
     15 HG2         13.4630  -100.9090     0.0660 h1         1 R2T       0.091700
     16 HE22        12.2970  -102.0640     3.7590 hn         1 R2T       0.308500
     17 HE21        12.9620  -100.5060     3.4280 hn         1 R2T       0.308500
     18 HOG         12.9680   -99.1910     1.3740 ho         1 R2T       0.381000
     19 HOB         15.7290  -102.5750     2.3530 ho         1 R2T       0.374000
     20 H2          16.5660   -98.3710     0.6520 hn         1 R2T       0.331300
     21 OXT         15.7490   -98.5460    -1.3050 o          1 R2T      -0.834300
@<TRIPOS>BOND
     1     1     2 1   
     2     1    12 1   
     3     1    20 1   
     4     2     3 1   
     5     2     5 1   
     6     2    13 1   
     7     3     4 1   
     8     3    21 1   
     9     5     6 1   
    10     5    11 1   
    11     5    14 1   
    12     6     7 1   
    13     6    10 1   
    14     6    15 1   
    15     7     8 2   
    16     7     9 1   
    17     9    16 1   
    18     9    17 1   
    19    10    18 1   
    20    11    19 1   
@<TRIPOS>SUBSTRUCTURE
     1 R2T         1 TEMP              0 ****  ****    0 ROOT
