@<TRIPOS>MOLECULE
R2T
   21    20     1     0     0
SMALL
No Charge or Current Charge


@<TRIPOS>ATOM
      1 N           17.0080   -99.4970     1.0950 n8         1 R2T      -0.873800
      2 CA          16.3810  -100.6560     0.3300 c3         1 R2T       0.032500
      3 C           15.9430  -100.4020    -1.1760 c          1 R2T       0.914600
      4 O           15.3430  -101.2890    -1.7750 o          1 R2T      -0.834300
      5 CB          15.2180  -101.3000     1.1480 c3         1 R2T       0.189100
      6 CG          13.8650  -100.5030     1.1140 c3         1 R2T       0.048100
      7 CD          12.6630  -101.3050     1.7020 c          1 R2T       0.627100
      8 OE1         11.5440  -101.2770     1.2140 o          1 R2T      -0.643100
      9 NE2         12.8790  -102.0520     2.8080 nt         1 R2T      -0.672000
     10 OG1         13.9960   -99.1910     1.7320 oh         1 R2T      -0.553800
     11 OB1         15.6950  -101.4310     2.4960 oh         1 R2T      -0.594800
     12 H           17.7060   -99.0490     0.4910 hn         1 R2T       0.331300
     13 HA          17.1740  -101.4120     0.2620 h1         1 R2T       0.015700
     14 HB2         15.0230  -102.2960     0.7270 h1         1 R2T       0.053700
     15 HG2         13.5960  -100.3710     0.0590 h1         1 R2T       0.091700
     16 HE22        12.1190  -102.5760     3.2150 hn         1 R2T       0.308500
     17 HE21        13.8080  -102.0720     3.2100 hn         1 R2T       0.308500
     18 HOG         13.1170   -98.7560     1.6960 ho         1 R2T       0.381000
     19 HOB         16.3520  -100.7020     2.5640 ho         1 R2T       0.374000
     20 H2          16.2890   -98.7740     1.2170 hn         1 R2T       0.331300
     21 OXT         16.2030   -99.3220    -1.6970 o          1 R2T      -0.834300
@<TRIPOS>BOND
     1     1     2 1   
     2     1    12 1   
     3     1    20 1   
     4     2     3 1   
     5     2     5 1   
     6     2    13 1   
     7     3     4 1   
     8     3    21 1   
     9     5     6 1   
    10     5    11 1   
    11     5    14 1   
    12     6     7 1   
    13     6    10 1   
    14     6    15 1   
    15     7     8 2   
    16     7     9 1   
    17     9    16 1   
    18     9    17 1   
    19    10    18 1   
    20    11    19 1   
@<TRIPOS>SUBSTRUCTURE
     1 R2T         1 TEMP              0 ****  ****    0 ROOT
