@<TRIPOS>MOLECULE
R2V
   51    54     1     0     0
SMALL
No Charge or Current Charge


@<TRIPOS>ATOM
      1 N10         19.8860    -9.2760    11.8520 na         1 R2V      -0.301300
      2 C02         23.3830    -9.3420    12.2110 ca         1 R2V       0.447900
      3 C04         22.5350    -9.7360    14.2970 ca         1 R2V       0.178900
      4 C06         21.0260    -9.4100    12.6030 ca         1 R2V       0.131500
      5 C07         22.0640    -9.2390    11.7200 ca         1 R2V      -0.092600
      6 C09         20.2820    -9.0030    10.5400 cc         1 R2V       0.416700
      7 C11         18.4880    -9.3870    12.2790 c5         1 R2V       0.321300
      8 C13         17.7070    -9.5990    14.4970 c5         1 R2V       0.159300
      9 C14         18.1830    -9.2260    15.9210 c3         1 R2V       0.202800
     10 C20         20.6840    -6.4250    15.3450 c          1 R2V       0.647700
     11 C22         22.1320    -6.3500    14.9080 ca         1 R2V      -0.119600
     12 C23         23.2060    -6.6980    15.7660 ca         1 R2V      -0.112000
     13 C24         24.5360    -6.6120    15.3180 ca         1 R2V      -0.069000
     14 C25         24.8160    -6.1750    14.0130 ca         1 R2V      -0.185000
     15 C26         23.7640    -5.8270    13.1540 ca         1 R2V       0.125100
     16 C28         22.4350    -5.9170    13.5950 ca         1 R2V      -0.090000
     17 C30         18.1170   -11.0230    14.0160 c5         1 R2V       0.094300
     18 C32         17.9400   -10.8490    12.4830 c5         1 R2V       0.098300
     19 N01         24.4750    -9.2070    11.4110 nv         1 R2V      -1.056900
     20 N03         23.6250    -9.5930    13.5060 nb         1 R2V      -0.293000
     21 N05         21.2390    -9.6600    13.9110 nb         1 R2V      -0.245000
     22 N08         21.6210    -8.9820    10.4200 nd         1 R2V      -0.540100
     23 N15         17.9850    -7.7860    16.1900 n7         1 R2V      -0.885300
     24 N19         20.4370    -6.9120    16.5870 ns         1 R2V      -0.601300
     25 O12         18.3190    -8.6990    13.5410 os         1 R2V      -0.438000
     26 O17         19.1020    -8.0050    18.4220 o          1 R2V      -0.539000
     27 O18         18.3990    -5.7380    17.5270 o          1 R2V      -0.539000
     28 O21         19.7650    -6.0800    14.6190 o          1 R2V      -0.562100
     29 O27         24.0310    -5.3940    11.8890 oh         1 R2V      -0.523100
     30 O31         17.2620   -12.0660    14.5240 oh         1 R2V      -0.708000
     31 O33         16.5480   -10.9900    12.1510 oh         1 R2V      -0.713000
     32 S16         18.9610    -7.0690    17.3080 s6         1 R2V       1.299900
     33 H1          22.7200    -9.9360    15.3510 h5         1 R2V       0.043100
     34 H2          19.5670    -8.8470     9.7400 h5         1 R2V       0.072800
     35 H3          17.8970    -8.8820    11.5040 h2         1 R2V       0.101700
     36 H4          16.6170    -9.4670    14.4460 h1         1 R2V       0.087700
     37 H5          17.6490    -9.8430    16.6570 h1         1 R2V       0.072700
     38 H6          23.0300    -7.0360    16.7840 ha         1 R2V       0.120000
     39 H7          25.3510    -6.8820    15.9860 ha         1 R2V       0.119000
     40 H8          25.8490    -6.1080    13.6800 ha         1 R2V       0.112000
     41 H9          21.6360    -5.6450    12.9100 ha         1 R2V       0.153000
     42 H10         19.1690   -11.2260    14.2650 h1         1 R2V       0.084700
     43 H11         18.5430   -11.5790    11.9250 h1         1 R2V       0.072700
     44 H12         25.3650    -9.0070    11.8570 hn         1 R2V       0.502000
     45 H13         24.3230    -8.8010    10.4920 hn         1 R2V       0.502000
     46 H14         21.1870    -7.2190    17.1800 hn         1 R2V       0.345500
     47 H15         25.0030    -5.3690    11.7680 ho         1 R2V       0.461000
     48 H16         17.8130   -12.8790    14.6430 ho         1 R2V       0.520000
     49 H17         16.1910   -11.5450    12.8920 ho         1 R2V       0.531000
     50 H18         19.2480    -9.4930    15.9860 h1         1 R2V       0.072700
     51 H19         18.3480    -7.2890    15.3690 hn         1 R2V       0.515000
@<TRIPOS>BOND
     1     1     4 1   
     2     1     6 1   
     3     1     7 1   
     4     2     5 ar  
     5     2    19 1   
     6     2    20 ar  
     7     3    20 ar  
     8     3    21 ar  
     9     3    33 1   
    10     4     5 ar  
    11     4    21 ar  
    12     5    22 1   
    13     6    22 2   
    14     6    34 1   
    15     7    18 1   
    16     7    25 1   
    17     7    35 1   
    18     8     9 1   
    19     8    17 1   
    20     8    25 1   
    21     8    36 1   
    22     9    23 1   
    23     9    37 1   
    24     9    50 1   
    25    10    11 1   
    26    10    24 1   
    27    10    28 2   
    28    11    12 ar  
    29    11    16 ar  
    30    12    13 ar  
    31    12    38 1   
    32    13    14 ar  
    33    13    39 1   
    34    14    15 ar  
    35    14    40 1   
    36    15    16 ar  
    37    15    29 1   
    38    16    41 1   
    39    17    18 1   
    40    17    30 1   
    41    17    42 1   
    42    18    31 1   
    43    18    43 1   
    44    19    44 1   
    45    19    45 1   
    46    23    32 1   
    47    23    51 1   
    48    24    32 1   
    49    24    46 1   
    50    26    32 2   
    51    27    32 2   
    52    29    47 1   
    53    30    48 1   
    54    31    49 1   
@<TRIPOS>SUBSTRUCTURE
     1 R2V         1 TEMP              0 ****  ****    0 ROOT
