@<TRIPOS>MOLECULE
R2V
   51    54     1     0     0
SMALL
bcc


@<TRIPOS>ATOM
      1 N10         19.9480    -9.1400    11.9880 na         1 R2V      -0.272000
      2 C02         23.4220    -9.2610    12.4130 ca         1 R2V       0.776200
      3 C04         22.4320    -9.8960    14.3830 ca         1 R2V       0.704900
      4 C06         21.0710    -9.3800    12.7320 ca         1 R2V       0.459800
      5 C07         22.1310    -9.0950    11.8830 ca         1 R2V      -0.223200
      6 C09         20.3900    -8.7210    10.7620 cc         1 R2V       0.416700
      7 C11         18.5520    -9.3100    12.3350 c5         1 R2V       0.268800
      8 C13         17.7390    -9.5530    14.5040 c5         1 R2V       0.136100
      9 C14         18.3180    -9.2440    15.8660 c3         1 R2V       0.202800
     10 C20         20.7240    -6.4580    15.3480 c          1 R2V       0.714700
     11 C22         22.1230    -6.4340    14.8480 ca         1 R2V      -0.119600
     12 C23         23.2230    -6.5920    15.6900 ca         1 R2V      -0.130000
     13 C24         24.4990    -6.4960    15.1570 ca         1 R2V      -0.087000
     14 C25         24.6890    -6.2450    13.8080 ca         1 R2V      -0.203000
     15 C26         23.5890    -6.0890    12.9690 ca         1 R2V       0.125100
     16 C28         22.3050    -6.1830    13.4940 ca         1 R2V      -0.108000
     17 C30         18.1100   -10.9540    14.0210 c5         1 R2V       0.071100
     18 C32         18.1100   -10.7700    12.4970 c5         1 R2V       0.075100
     19 N01         24.5270    -9.0540    11.6890 nv         1 R2V      -0.946500
     20 N03         23.5360    -9.6690    13.6790 nb         1 R2V      -0.819000
     21 N05         21.1730    -9.7870    13.9950 nb         1 R2V      -0.771000
     22 N08         21.6830    -8.6850    10.6560 nd         1 R2V      -0.540100
     23 N15         17.9940    -7.8710    16.2670 n7         1 R2V      -0.830100
     24 N19         20.5220    -7.0860    16.5530 ns         1 R2V      -0.668300
     25 O12         18.2760    -8.6600    13.5410 os         1 R2V      -0.391600
     26 O17         19.2290    -8.0050    18.4280 o          1 R2V      -0.609800
     27 O18         18.5450    -5.7790    17.4790 o          1 R2V      -0.609800
     28 O21         19.8030    -5.9420    14.7530 o          1 R2V      -0.562100
     29 O27         23.7060    -5.8510    11.6510 oh         1 R2V      -0.484100
     30 O31         17.1630   -11.8840    14.4670 oh         1 R2V      -0.585800
     31 O33         16.8080   -10.8700    11.9880 oh         1 R2V      -0.590800
     32 S16         19.0090    -7.1320    17.2960 s6         1 R2V       1.441500
     33 H1          22.5880   -10.2150    15.4080 h5         1 R2V       0.043100
     34 H2          19.6910    -8.4590     9.9800 h5         1 R2V       0.072800
     35 H3          17.9930    -8.8520    11.5140 h2         1 R2V       0.101700
     36 H4          16.6460    -9.4490    14.5310 h1         1 R2V       0.087700
     37 H5          17.8930    -9.9410    16.5900 h1         1 R2V       0.072700
     38 H6          23.1100    -6.7490    16.7540 ha         1 R2V       0.138000
     39 H7          25.3590    -6.6080    15.8040 ha         1 R2V       0.137000
     40 H8          25.6950    -6.1700    13.4100 ha         1 R2V       0.130000
     41 H9          21.4520    -6.0670    12.8390 ha         1 R2V       0.171000
     42 H10         19.1210   -11.2040    14.3560 h1         1 R2V       0.084700
     43 H11         18.7970   -11.4570    11.9870 h1         1 R2V       0.072700
     44 H12         25.4230    -9.0600    12.1460 hn         1 R2V       0.446800
     45 H13         24.4680    -8.6100    10.7890 hn         1 R2V       0.446800
     46 H14         21.2410    -7.6550    16.9790 hn         1 R2V       0.345500
     47 H15         24.6350    -5.8000    11.3970 ho         1 R2V       0.422000
     48 H16         17.5660   -12.7590    14.4710 ho         1 R2V       0.421000
     49 H17         16.3350   -11.5200    12.5250 ho         1 R2V       0.432000
     50 H18         19.3970    -9.4070    15.8220 h1         1 R2V       0.072700
     51 H19         17.7010    -7.2510    15.5170 hn         1 R2V       0.459800
@<TRIPOS>BOND
     1     1     4 1   
     2     1     6 1   
     3     1     7 1   
     4     2     5 ar  
     5     2    19 1   
     6     2    20 ar  
     7     3    20 ar  
     8     3    21 ar  
     9     3    33 1   
    10     4     5 ar  
    11     4    21 ar  
    12     5    22 1   
    13     6    22 2   
    14     6    34 1   
    15     7    18 1   
    16     7    25 1   
    17     7    35 1   
    18     8     9 1   
    19     8    17 1   
    20     8    25 1   
    21     8    36 1   
    22     9    23 1   
    23     9    37 1   
    24     9    50 1   
    25    10    11 1   
    26    10    24 1   
    27    10    28 2   
    28    11    12 ar  
    29    11    16 ar  
    30    12    13 ar  
    31    12    38 1   
    32    13    14 ar  
    33    13    39 1   
    34    14    15 ar  
    35    14    40 1   
    36    15    16 ar  
    37    15    29 1   
    38    16    41 1   
    39    17    18 1   
    40    17    30 1   
    41    17    42 1   
    42    18    31 1   
    43    18    43 1   
    44    19    44 1   
    45    19    45 1   
    46    23    32 1   
    47    23    51 1   
    48    24    32 1   
    49    24    46 1   
    50    26    32 2   
    51    27    32 2   
    52    29    47 1   
    53    30    48 1   
    54    31    49 1   
@<TRIPOS>SUBSTRUCTURE
     1 R2V         1 TEMP              0 ****  ****    0 ROOT
