@<TRIPOS>MOLECULE
R2W
   43    44     1     0     0
SMALL
bcc


@<TRIPOS>ATOM
      1 N1          -3.7740     5.1240    14.3600 ns         1 R2W      -0.436100
      2 C7           0.9940    11.9180    12.5310 ca         1 R2W      -0.161000
      3 C8          -0.2950    11.9930    12.0140 ca         1 R2W      -0.092500
      4 N2          -6.5600    -0.6820    14.4710 n8         1 R2W      -0.900700
      5 C9          -1.3350    11.3020    12.6110 ca         1 R2W      -0.189000
      6 O1          -5.5810    -0.7500    16.7500 o          1 R2W      -0.614300
      7 C1          -2.0400     7.1710    13.3830 c3         1 R2W       0.090000
      8 C5           0.1870    10.4450    14.2710 ca         1 R2W      -0.189000
      9 C6           1.2220    11.1430    13.6560 ca         1 R2W      -0.092500
     10 C4          -1.1010    10.5240    13.7470 ca         1 R2W       0.131100
     11 C3          -2.0390     8.9030    15.2560 c3         1 R2W       0.142400
     12 C2          -1.4440     7.6110    14.7180 c3         1 R2W      -0.136400
     13 O2          -7.7750     0.4110    16.4850 o          1 R2W      -0.614300
     14 S1          -6.4690     0.0700    15.9380 sy         1 R2W       1.273200
     15 C13         -5.6660     1.5810    15.4870 ca         1 R2W      -0.283500
     16 C12         -6.2090     2.7920    15.8910 ca         1 R2W      -0.009500
     17 C11         -5.5840     3.9780    15.5440 ca         1 R2W      -0.158500
     18 C14         -4.4780     1.5430    14.7680 ca         1 R2W      -0.009500
     19 C15         -3.8730     2.7290    14.3990 ca         1 R2W      -0.158500
     20 C10         -4.4320     3.9540    14.7640 ca         1 R2W       0.110600
     21 C           -4.3350     6.2210    13.7900 cs         1 R2W       0.610400
     22 S           -5.9910     6.4360    13.5890 s          1 R2W      -0.642400
     23 N           -3.4900     7.1560    13.3480 ns         1 R2W      -0.516900
     24 O           -2.1840     9.9120    14.2710 os         1 R2W      -0.328900
     25 H1          -2.7720     5.0210    14.2770 hn         1 R2W       0.311500
     26 H3          -0.4950    12.5930    11.1350 ha         1 R2W       0.132500
     27 H4          -6.6920    -1.6840    14.5690 hn         1 R2W       0.421800
     28 H5          -7.2700    -0.2850    13.8640 hn         1 R2W       0.421800
     29 H6          -2.3370    11.3590    12.2060 ha         1 R2W       0.138500
     30 H7          -1.6360     6.1970    13.0960 h1         1 R2W       0.058700
     31 H8          -1.7290     7.8510    12.5910 h1         1 R2W       0.058700
     32 H9           0.4060     9.8560    15.1520 ha         1 R2W       0.138500
     33 H10          2.2190    11.0720    14.0720 ha         1 R2W       0.132500
     34 H11         -3.0530     8.7240    15.6140 h1         1 R2W       0.063700
     35 H12         -1.4590     9.2600    16.1140 h1         1 R2W       0.063700
     36 H13         -1.5940     6.8430    15.4810 hc         1 R2W       0.058700
     37 H14         -0.3640     7.6940    14.5800 hc         1 R2W       0.058700
     38 H15         -7.1160     2.8240    16.4790 ha         1 R2W       0.158500
     39 H16         -5.9980     4.9170    15.8770 ha         1 R2W       0.151500
     40 H17         -4.0430     0.6020    14.4570 ha         1 R2W       0.158500
     41 H18         -2.9660     2.7060    13.8060 ha         1 R2W       0.151500
     42 H19         -3.9420     7.9640    12.9500 hn         1 R2W       0.361500
     43 H2           1.8060    12.4570    12.0610 ha         1 R2W       0.135000
@<TRIPOS>BOND
     1     1    20 1   
     2     1    21 1   
     3     1    25 1   
     4     2     3 ar  
     5     2     9 ar  
     6     2    43 1   
     7     3     5 ar  
     8     3    26 1   
     9     4    14 1   
    10     4    27 1   
    11     4    28 1   
    12     5    10 ar  
    13     5    29 1   
    14     6    14 2   
    15     7    12 1   
    16     7    23 1   
    17     7    30 1   
    18     7    31 1   
    19     8     9 ar  
    20     8    10 ar  
    21     8    32 1   
    22     9    33 1   
    23    10    24 1   
    24    11    12 1   
    25    11    24 1   
    26    11    34 1   
    27    11    35 1   
    28    12    36 1   
    29    12    37 1   
    30    13    14 2   
    31    14    15 1   
    32    15    16 ar  
    33    15    18 ar  
    34    16    17 ar  
    35    16    38 1   
    36    17    20 ar  
    37    17    39 1   
    38    18    19 ar  
    39    18    40 1   
    40    19    20 ar  
    41    19    41 1   
    42    21    22 2   
    43    21    23 1   
    44    23    42 1   
@<TRIPOS>SUBSTRUCTURE
     1 R2W         1 TEMP              0 ****  ****    0 ROOT
