@<TRIPOS>MOLECULE
R2W
   43    44     1     0     0
SMALL
No Charge or Current Charge


@<TRIPOS>ATOM
      1 N1          -4.2330     5.2000    13.7750 ns         1 R2W      -0.369100
      2 C7           1.5590    11.6540    13.2050 ca         1 R2W      -0.143000
      3 C8           0.4180    12.0480    12.4870 ca         1 R2W      -0.074500
      4 N2          -6.5150    -0.7900    15.2000 n8         1 R2W      -1.011100
      5 C9          -0.8340    11.4920    12.8020 ca         1 R2W      -0.171000
      6 O1          -4.4440    -0.8770    16.5280 o          1 R2W      -0.543500
      7 C1          -2.6580     7.3830    12.8320 c3         1 R2W       0.090000
      8 C5           0.1950    10.1530    14.5540 ca         1 R2W      -0.171000
      9 C6           1.4480    10.7090    14.2380 ca         1 R2W      -0.074500
     10 C4          -0.9540    10.5400    13.8290 ca         1 R2W       0.131100
     11 C3          -2.4540     8.8950    14.9390 c3         1 R2W       0.165600
     12 C2          -1.9930     7.6080    14.2100 c3         1 R2W      -0.136400
     13 O2          -6.6160     0.1410    17.4510 o          1 R2W      -0.543500
     14 S1          -5.6470    -0.0580    16.3760 sy         1 R2W       1.131600
     15 C13         -5.2460     1.5130    15.6090 ca         1 R2W      -0.283500
     16 C12         -6.0620     2.6420    15.8270 ca         1 R2W       0.008500
     17 C11         -5.7400     3.8690    15.2220 ca         1 R2W      -0.140500
     18 C14         -4.1050     1.6260    14.7910 ca         1 R2W       0.008500
     19 C15         -3.7900     2.8580    14.1920 ca         1 R2W      -0.140500
     20 C10         -4.6100     3.9830    14.3890 ca         1 R2W       0.110600
     21 C           -4.9190     6.3220    13.3920 cs         1 R2W       0.476400
     22 S           -6.5780     6.4930    13.3800 s          1 R2W      -0.642400
     23 N           -4.1250     7.3210    12.9020 ns         1 R2W      -0.449900
     24 O           -2.2140    10.0380    14.0910 os         1 R2W      -0.352100
     25 H1          -3.2400     5.2630    13.6030 hn         1 R2W       0.311500
     26 H3           0.5030    12.7820    11.6880 ha         1 R2W       0.114500
     27 H4          -7.3440    -1.0670    15.7200 hn         1 R2W       0.477000
     28 H5          -6.8300    -0.0010    14.6420 hn         1 R2W       0.477000
     29 H6          -1.7170    11.7970    12.2470 ha         1 R2W       0.120500
     30 H7          -2.2760     6.4580    12.3800 h1         1 R2W       0.058700
     31 H8          -2.3810     8.2070    12.1600 h1         1 R2W       0.058700
     32 H9           0.1370     9.4320    15.3640 ha         1 R2W       0.120500
     33 H10          2.3320    10.4090    14.7970 ha         1 R2W       0.114500
     34 H11         -3.5280     8.8130    15.1520 h1         1 R2W       0.063700
     35 H12         -1.9440     8.9970    15.9060 h1         1 R2W       0.063700
     36 H13         -2.1980     6.7510    14.8620 hc         1 R2W       0.058700
     37 H14         -0.9060     7.6300    14.0750 hc         1 R2W       0.058700
     38 H15         -6.9410     2.5790    16.4680 ha         1 R2W       0.140500
     39 H16         -6.3670     4.7300    15.4280 ha         1 R2W       0.133500
     40 H17         -3.4600     0.7660    14.6170 ha         1 R2W       0.140500
     41 H18         -2.9060     2.9320    13.5630 ha         1 R2W       0.133500
     42 H19         -4.6310     8.1360    12.5720 hn         1 R2W       0.361500
     43 H2           2.5290    12.0830    12.9620 ha         1 R2W       0.117000
@<TRIPOS>BOND
     1     1    20 1   
     2     1    21 1   
     3     1    25 1   
     4     2     3 ar  
     5     2     9 ar  
     6     2    43 1   
     7     3     5 ar  
     8     3    26 1   
     9     4    14 1   
    10     4    27 1   
    11     4    28 1   
    12     5    10 ar  
    13     5    29 1   
    14     6    14 2   
    15     7    12 1   
    16     7    23 1   
    17     7    30 1   
    18     7    31 1   
    19     8     9 ar  
    20     8    10 ar  
    21     8    32 1   
    22     9    33 1   
    23    10    24 1   
    24    11    12 1   
    25    11    24 1   
    26    11    34 1   
    27    11    35 1   
    28    12    36 1   
    29    12    37 1   
    30    13    14 2   
    31    14    15 1   
    32    15    16 ar  
    33    15    18 ar  
    34    16    17 ar  
    35    16    38 1   
    36    17    20 ar  
    37    17    39 1   
    38    18    19 ar  
    39    18    40 1   
    40    19    20 ar  
    41    19    41 1   
    42    21    22 2   
    43    21    23 1   
    44    23    42 1   
@<TRIPOS>SUBSTRUCTURE
     1 R2W         1 TEMP              0 ****  ****    0 ROOT
