@<TRIPOS>MOLECULE
R2X
   63    67     1     0     0
SMALL
No Charge or Current Charge


@<TRIPOS>ATOM
      1 N1         -27.2220     5.2510    26.9330 n          1 R2X      -0.405800
      2 N3         -16.1950     5.2970    27.2150 nb         1 R2X      -0.640000
      3 C4         -22.7850     4.4830    29.2350 ca         1 R2X      -0.072300
      4 C5         -24.0430     3.8500    29.3150 ca         1 R2X      -0.080000
      5 C6         -22.1480     4.7090    27.8580 c3         1 R2X       0.087000
      6 C8         -23.5310     8.2140    27.0630 c5         1 R2X       0.082300
      7 C10        -25.5380     7.5810    28.1810 c5         1 R2X      -0.108400
      8 C13        -27.6010     3.8190    26.9690 c5         1 R2X       0.099500
      9 C15        -29.4250     5.2050    27.7130 c5         1 R2X      -0.093900
     10 C17        -20.5890     4.5820    27.8260 c          1 R2X       0.610100
     11 C20        -15.8630     6.2230    26.2880 ca         1 R2X       0.334900
     12 C21        -16.8170     6.9650    25.5670 ca         1 R2X      -0.081000
     13 C22        -16.4080     7.9200    24.6170 ca         1 R2X      -0.082000
     14 C24        -18.7350     8.4380    24.1360 ca         1 R2X      -0.096000
     15 C26        -18.1910     6.7390    25.8090 ca         1 R2X      -0.033000
     16 O3         -20.0020     3.6950    28.4350 o          1 R2X      -0.549100
     17 N2         -19.9340     5.5270    27.0430 ns         1 R2X      -0.147000
     18 C18        -18.5530     5.7670    26.7740 ca         1 R2X      -0.057000
     19 C25        -19.1490     7.4860    25.0830 ca         1 R2X      -0.104000
     20 C23        -17.3670     8.6560    23.9030 ca         1 R2X      -0.111000
     21 C19        -17.5110     5.0800    27.4480 ca         1 R2X       0.307900
     22 C3         -22.1710     4.9350    30.4230 ca         1 R2X      -0.080000
     23 C2         -22.8000     4.7480    31.6670 ca         1 R2X      -0.107000
     24 C1         -24.0520     4.1150    31.7340 ca         1 R2X      -0.096000
     25 C          -24.6720     3.6690    30.5570 ca         1 R2X       0.126000
     26 Cl         -26.2470     2.8890    30.6370 cl         1 R2X      -0.215000
     27 N          -22.6770     5.9490    27.2420 ns         1 R2X      -0.512900
     28 O          -21.7130     7.4970    28.6230 o          1 R2X      -0.592100
     29 O1         -24.3830     7.5700    26.0690 os         1 R2X      -0.446000
     30 C11        -25.6640     7.1940    26.6700 c5         1 R2X       0.082300
     31 C9         -24.5390     8.7620    28.1060 c5         1 R2X      -0.096400
     32 C12        -25.9380     5.6540    26.4950 c          1 R2X       0.598100
     33 O2         -25.1210     4.8410    26.0740 o          1 R2X      -0.629100
     34 C16        -28.4010     6.1440    27.0310 c5         1 R2X       0.099500
     35 C14        -29.1510     3.8750    26.9720 c5         1 R2X      -0.093900
     36 H1         -24.5390     3.5030    28.4120 ha         1 R2X       0.130000
     37 H2         -22.4850     3.8890    27.2100 h1         1 R2X       0.077700
     38 H3         -22.9380     9.0060    26.5870 h1         1 R2X       0.100700
     39 H4         -26.4890     7.8800    28.6340 hc         1 R2X       0.067200
     40 H5         -25.1430     6.7530    28.7820 hc         1 R2X       0.067200
     41 H6         -27.2170     3.2590    26.1060 h1         1 R2X       0.056450
     42 H7         -27.2170     3.3480    27.8830 h1         1 R2X       0.056450
     43 H8         -29.2250     5.1120    28.7870 hc         1 R2X       0.059200
     44 H9         -30.4570     5.5540    27.5960 hc         1 R2X       0.059200
     45 H11        -15.3490     8.0930    24.4320 ha         1 R2X       0.117000
     46 H12        -19.4760     9.0090    23.5810 ha         1 R2X       0.113000
     47 H13        -20.5590     6.1800    26.5910 hn         1 R2X       0.158000
     48 H14        -20.2150     7.3410    25.2360 ha         1 R2X       0.112000
     49 H15        -17.0510     9.3940    23.1690 ha         1 R2X       0.115000
     50 H16        -17.7150     4.3350    28.2120 h4         1 R2X       0.044100
     51 H17        -21.2090     5.4410    30.3900 ha         1 R2X       0.117000
     52 H18        -22.3190     5.1000    32.5770 ha         1 R2X       0.115000
     53 H19        -24.5420     3.9740    32.6940 ha         1 R2X       0.128000
     54 H20        -23.4080     5.8540    26.5360 hn         1 R2X       0.376500
     55 H21        -26.4550     7.7650    26.1680 h1         1 R2X       0.070700
     56 H22        -24.0780     8.9960    29.0730 hc         1 R2X       0.073200
     57 H23        -25.0220     9.6780    27.7430 hc         1 R2X       0.073200
     58 H24        -28.2290     7.0420    27.6360 h1         1 R2X       0.056450
     59 H25        -28.7390     6.4550    26.0330 h1         1 R2X       0.056450
     60 H26        -29.5440     3.9070    25.9480 hc         1 R2X       0.059200
     61 H27        -29.6010     3.0080    27.4690 hc         1 R2X       0.059200
     62 C7         -22.5290     7.2220    27.7560 c          1 R2X       0.561100
     63 H10        -14.7970     6.3750    26.1230 h4         1 R2X       0.019100
@<TRIPOS>BOND
     1     1     8 1   
     2     1    32 1   
     3     1    34 1   
     4     2    11 ar  
     5     2    21 ar  
     6     3     4 ar  
     7     3     5 1   
     8     3    22 ar  
     9     4    25 ar  
    10     4    36 1   
    11     5    10 1   
    12     5    27 1   
    13     5    37 1   
    14     6    29 1   
    15     6    31 1   
    16     6    38 1   
    17     6    62 1   
    18     7    30 1   
    19     7    31 1   
    20     7    39 1   
    21     7    40 1   
    22     8    35 1   
    23     8    41 1   
    24     8    42 1   
    25     9    34 1   
    26     9    35 1   
    27     9    43 1   
    28     9    44 1   
    29    10    16 2   
    30    10    17 1   
    31    11    12 ar  
    32    11    63 1   
    33    12    13 ar  
    34    12    15 ar  
    35    13    20 ar  
    36    13    45 1   
    37    14    19 ar  
    38    14    20 ar  
    39    14    46 1   
    40    15    18 ar  
    41    15    19 ar  
    42    17    18 1   
    43    17    47 1   
    44    18    21 ar  
    45    19    48 1   
    46    20    49 1   
    47    21    50 1   
    48    22    23 ar  
    49    22    51 1   
    50    23    24 ar  
    51    23    52 1   
    52    24    25 ar  
    53    24    53 1   
    54    25    26 1   
    55    27    54 1   
    56    27    62 1   
    57    28    62 2   
    58    29    30 1   
    59    30    32 1   
    60    30    55 1   
    61    31    56 1   
    62    31    57 1   
    63    32    33 2   
    64    34    58 1   
    65    34    59 1   
    66    35    60 1   
    67    35    61 1   
@<TRIPOS>SUBSTRUCTURE
     1 R2X         1 TEMP              0 ****  ****    0 ROOT
