@<TRIPOS>MOLECULE
R2X
   63    67     1     0     0
SMALL
abcg2


@<TRIPOS>ATOM
      1 N1         -27.3410     5.8000    26.5120 n          1 R2X      -0.405800
      2 N3         -16.4120     5.1380    26.6460 nb         1 R2X      -0.640000
      3 C4         -22.4130     4.1670    29.7850 ca         1 R2X      -0.072300
      4 C5         -22.1620     2.8510    30.1730 ca         1 R2X      -0.080000
      5 C6         -21.9940     4.5890    28.3910 c3         1 R2X       0.087000
      6 C8         -23.3520     8.0520    27.5200 c5         1 R2X       0.082300
      7 C10        -25.5260     7.7490    28.4480 c5         1 R2X      -0.108400
      8 C13        -27.9130     4.4610    26.2940 c5         1 R2X       0.099500
      9 C15        -29.6800     6.0560    26.5910 c5         1 R2X      -0.093900
     10 C17        -20.4620     4.7930    28.2770 c          1 R2X       0.610100
     11 C20        -16.2440     6.0750    25.7410 ca         1 R2X       0.334900
     12 C21        -17.3070     6.8220    25.1820 ca         1 R2X      -0.081000
     13 C22        -17.0810     7.8260    24.2110 ca         1 R2X      -0.082000
     14 C24        -19.4430     8.2940    24.1540 ca         1 R2X      -0.096000
     15 C26        -18.6310     6.5540    25.6270 ca         1 R2X      -0.033000
     16 O3         -19.6920     4.5460    29.1880 o          1 R2X      -0.549100
     17 N2         -20.0820     5.1930    27.0320 ns         1 R2X      -0.147000
     18 C18        -18.7890     5.5220    26.5990 ca         1 R2X      -0.057000
     19 C25        -19.6930     7.3240    25.0940 ca         1 R2X      -0.104000
     20 C23        -18.1300     8.5460    23.7020 ca         1 R2X      -0.111000
     21 C19        -17.6730     4.8620    27.0620 ca         1 R2X       0.307900
     22 C3         -23.0420     5.0310    30.6740 ca         1 R2X      -0.080000
     23 C2         -23.4050     4.5900    31.9430 ca         1 R2X      -0.107000
     24 C1         -23.1500     3.2840    32.3420 ca         1 R2X      -0.096000
     25 C          -22.5290     2.4300    31.4410 ca         1 R2X       0.126000
     26 CL         -22.2080     0.7720    31.9140 cl         1 R2X      -0.215000
     27 N          -22.7260     5.7190    27.8500 ns         1 R2X      -0.512900
     28 O          -21.5010     7.3450    28.8600 o          1 R2X      -0.592100
     29 O1         -24.1920     7.5190    26.4950 os         1 R2X      -0.446000
     30 C11        -25.5460     7.3990    26.9500 c5         1 R2X       0.082300
     31 C9         -24.3050     8.6640    28.5520 c5         1 R2X      -0.096400
     32 C12        -26.0330     5.9740    26.6980 c          1 R2X       0.598100
     33 O2         -25.2330     5.0250    26.7020 o          1 R2X      -0.629100
     34 C16        -28.3780     6.8510    26.5030 c5         1 R2X       0.099500
     35 C14        -29.3490     4.7520    25.8600 c5         1 R2X      -0.093900
     36 H1         -21.6850     2.1610    29.4900 ha         1 R2X       0.130000
     37 H2         -22.2100     3.7520    27.7210 h1         1 R2X       0.077700
     38 H3         -22.6960     8.7980    27.0690 h1         1 R2X       0.100700
     39 H4         -26.4480     8.2300    28.7670 hc         1 R2X       0.067200
     40 H5         -25.3820     6.8470    29.0450 hc         1 R2X       0.067200
     41 H6         -27.3330     3.9230    25.5450 h1         1 R2X       0.056450
     42 H7         -27.8770     3.8910    27.2260 h1         1 R2X       0.056450
     43 H8         -29.9180     5.8500    27.6370 hc         1 R2X       0.059200
     44 H9         -30.5160     6.5970    26.1510 hc         1 R2X       0.059200
     45 H11        -16.0660     8.0120    23.8820 ha         1 R2X       0.117000
     46 H12        -20.2640     8.8770    23.7580 ha         1 R2X       0.113000
     47 H13        -20.8340     5.3970    26.3910 hn         1 R2X       0.158000
     48 H14        -20.7100     7.1710    25.4270 ha         1 R2X       0.112000
     49 H15        -17.9580     9.3140    22.9590 ha         1 R2X       0.115000
     50 H16        -17.7750     4.0760    27.7950 h4         1 R2X       0.044100
     51 H17        -23.2560     6.0490    30.3860 ha         1 R2X       0.117000
     52 H18        -23.8950     5.2700    32.6290 ha         1 R2X       0.115000
     53 H19        -23.4330     2.9340    33.3250 ha         1 R2X       0.128000
     54 H20        -23.5720     5.5170    27.3070 hn         1 R2X       0.376500
     55 H21        -26.1530     8.1130    26.3900 h1         1 R2X       0.070700
     56 H22        -23.8730     8.6920    29.5510 hc         1 R2X       0.073200
     57 H23        -24.5580     9.6810    28.2520 hc         1 R2X       0.073200
     58 H24        -28.2530     7.5360    27.3390 h1         1 R2X       0.056450
     59 H25        -28.3230     7.4200    25.5720 h1         1 R2X       0.056450
     60 H26        -29.3880     4.9070    24.7800 hc         1 R2X       0.059200
     61 H27        -30.0250     3.9360    26.1120 hc         1 R2X       0.059200
     62 C7         -22.4380     6.9960    28.1430 c          1 R2X       0.561100
     63 H10        -15.2290     6.2760    25.4110 h4         1 R2X       0.019100
@<TRIPOS>BOND
     1     1     8 1   
     2     1    32 1   
     3     1    34 1   
     4     2    11 ar  
     5     2    21 ar  
     6     3     4 ar  
     7     3     5 1   
     8     3    22 ar  
     9     4    25 ar  
    10     4    36 1   
    11     5    10 1   
    12     5    27 1   
    13     5    37 1   
    14     6    29 1   
    15     6    31 1   
    16     6    38 1   
    17     6    62 1   
    18     7    30 1   
    19     7    31 1   
    20     7    39 1   
    21     7    40 1   
    22     8    35 1   
    23     8    41 1   
    24     8    42 1   
    25     9    34 1   
    26     9    35 1   
    27     9    43 1   
    28     9    44 1   
    29    10    16 2   
    30    10    17 1   
    31    11    12 ar  
    32    11    63 1   
    33    12    13 ar  
    34    12    15 ar  
    35    13    20 ar  
    36    13    45 1   
    37    14    19 ar  
    38    14    20 ar  
    39    14    46 1   
    40    15    18 ar  
    41    15    19 ar  
    42    17    18 1   
    43    17    47 1   
    44    18    21 ar  
    45    19    48 1   
    46    20    49 1   
    47    21    50 1   
    48    22    23 ar  
    49    22    51 1   
    50    23    24 ar  
    51    23    52 1   
    52    24    25 ar  
    53    24    53 1   
    54    25    26 1   
    55    27    54 1   
    56    27    62 1   
    57    28    62 2   
    58    29    30 1   
    59    30    32 1   
    60    30    55 1   
    61    31    56 1   
    62    31    57 1   
    63    32    33 2   
    64    34    58 1   
    65    34    59 1   
    66    35    60 1   
    67    35    61 1   
@<TRIPOS>SUBSTRUCTURE
     1 R2X         1 TEMP              0 ****  ****    0 ROOT
