@<TRIPOS>MOLECULE
R2Y
   73    76     1     0     0
SMALL
No Charge or Current Charge


@<TRIPOS>ATOM
      1 C5          -8.8280   -10.0610    12.4710 ca         1 R2Y      -0.207000
      2 C13         -7.0280   -11.5850    12.9810 ca         1 R2Y      -0.120000
      3 C16         -7.2710   -13.9720    12.5320 ca         1 R2Y      -0.095000
      4 C14         -6.4980   -12.8940    13.0000 ca         1 R2Y      -0.078000
      5 C3          -9.0990   -12.4520    12.0170 ca         1 R2Y      -0.108000
      6 C4          -8.3290   -11.3740    12.4850 ca         1 R2Y       0.016000
      7 C18         -8.5740   -13.7580    12.0410 ca         1 R2Y      -0.090300
      8 O68         -7.4780   -16.7450    10.3910 o          1 R2Y      -0.607100
      9 C63         -8.1810   -16.0670     9.6510 c          1 R2Y       0.598100
     10 C57         -8.1650   -16.0390     8.0860 c5         1 R2Y       0.034700
     11 C58         -9.2020   -17.0780     7.5590 c5         1 R2Y      -0.141400
     12 C70         -8.6950   -17.3550     6.1250 c5         1 R2Y       0.174000
     13 F1          -9.0260   -16.3110     5.2600 f          1 R2Y      -0.108000
     14 F2          -9.2340   -18.5310     5.6100 f          1 R2Y      -0.108000
     15 C62         -7.1590   -17.4620     6.3190 c5         1 R2Y       0.059000
     16 N56         -6.9100   -16.5470     7.4620 n          1 R2Y      -0.414800
     17 C71         -5.6470   -15.9700     7.7350 c          1 R2Y       0.610100
     18 C41         -4.3540   -16.7160     7.2210 c3         1 R2Y       0.120500
     19 N43         -3.3720   -17.0580     8.3030 n7         1 R2Y      -0.855400
     20 C46         -3.8670   -17.7930     9.4880 c6         1 R2Y       0.169500
     21 C47         -2.7430   -17.8830    10.5520 c6         1 R2Y      -0.087900
     22 C49         -3.2160   -18.6530    11.8110 c6         1 R2Y      -0.073400
     23 C51         -3.7320   -20.0650    11.4410 c6         1 R2Y      -0.074400
     24 C53         -4.8510   -19.9880    10.3750 c6         1 R2Y      -0.073400
     25 C55         -4.3800   -19.2140     9.1190 c6         1 R2Y      -0.087900
     26 C38         -3.6530   -15.8840     6.1150 c3         1 R2Y      -0.080400
     27 C60         -2.4900   -16.5920     5.3590 c3         1 R2Y      -0.063700
     28 C61         -2.9410   -17.8840     4.6350 c3         1 R2Y      -0.091100
     29 C69         -1.8120   -15.6200     4.3660 c3         1 R2Y      -0.091100
     30 O44         -5.5770   -14.9420     8.4040 o          1 R2Y      -0.567100
     31 N69         -9.1380   -15.1890    10.1140 ns         1 R2Y      -0.484900
     32 C7          -8.0220    -9.0150    12.9500 ca         1 R2Y       0.377900
     33 N9          -6.7730    -9.2060    13.4310 nb         1 R2Y      -0.764000
     34 C11         -6.3140   -10.4530    13.4330 ca         1 R2Y       0.614900
     35 N12         -5.0790   -10.4670    13.9520 nv         1 R2Y      -1.047900
     36 H1          -9.8250    -9.8460    12.0980 ha         1 R2Y       0.122000
     37 H2          -6.8530   -14.9770    12.5470 ha         1 R2Y       0.135000
     38 H3          -5.4940   -13.0860    13.3690 ha         1 R2Y       0.114000
     39 H4         -10.1020   -12.2760    11.6340 ha         1 R2Y       0.111000
     40 H5         -10.4710   -14.7080    11.6520 h1         1 R2Y       0.064200
     41 H6          -9.1820   -15.8280    12.1190 h1         1 R2Y       0.064200
     42 H7          -8.3840   -15.0220     7.7340 h1         1 R2Y       0.082700
     43 H8         -10.2290   -16.6970     7.5780 hc         1 R2Y       0.089200
     44 H9          -9.1850   -17.9980     8.1560 hc         1 R2Y       0.089200
     45 H10         -6.8620   -18.4900     6.5660 h1         1 R2Y       0.077700
     46 H11         -6.6190   -17.1500     5.4150 h1         1 R2Y       0.077700
     47 H12         -4.6870   -17.6520     6.7620 h1         1 R2Y       0.030700
     48 H13         -2.6000   -17.5880     7.8850 hn         1 R2Y       0.421000
     49 H15         -4.7030   -17.2310     9.9350 h1         1 R2Y       0.069700
     50 H16         -1.8620   -18.3830    10.1270 hc         1 R2Y       0.041450
     51 H17         -2.4220   -16.8730    10.8410 hc         1 R2Y       0.041450
     52 H18         -2.3900   -18.7340    12.5310 hc         1 R2Y       0.040450
     53 H19         -4.0140   -18.0870    12.3130 hc         1 R2Y       0.040450
     54 H20         -4.1070   -20.5720    12.3400 hc         1 R2Y       0.037700
     55 H21         -2.9000   -20.6750    11.0620 hc         1 R2Y       0.037700
     56 H22         -5.7350   -19.4930    10.8020 hc         1 R2Y       0.040450
     57 H23         -5.1670   -21.0010    10.0920 hc         1 R2Y       0.040450
     58 H24         -5.2190   -19.1460     8.4130 hc         1 R2Y       0.041450
     59 H25         -3.5870   -19.7800     8.6120 hc         1 R2Y       0.041450
     60 H26         -3.2750   -14.9580     6.5670 hc         1 R2Y       0.058700
     61 H27         -4.4090   -15.5790     5.3810 hc         1 R2Y       0.058700
     62 H28         -1.7260   -16.8750     6.0930 hc         1 R2Y       0.047700
     63 H29         -3.2780   -18.6440     5.3490 hc         1 R2Y       0.034367
     64 H30         -3.7610   -17.6760     3.9370 hc         1 R2Y       0.034367
     65 H31         -2.1100   -18.3170     4.0650 hc         1 R2Y       0.034367
     66 H32         -1.4420   -14.7290     4.8870 hc         1 R2Y       0.034367
     67 H33         -0.9570   -16.1010     3.8750 hc         1 R2Y       0.034367
     68 H34         -2.5170   -15.2980     3.5900 hc         1 R2Y       0.034367
     69 H35         -9.6680   -14.6720     9.4230 hn         1 R2Y       0.320500
     70 H36         -8.3890    -7.9890    12.9500 h4         1 R2Y       0.014100
     71 H37         -4.8190    -9.6070    14.4190 hn         1 R2Y       0.469500
     72 H38         -4.7610   -11.3260    14.3840 hn         1 R2Y       0.469500
     73 C15         -9.4020   -14.9280    11.5290 c3         1 R2Y       0.144300
@<TRIPOS>BOND
     1     1     6 ar  
     2     1    32 ar  
     3     1    36 1   
     4     2     4 ar  
     5     2     6 ar  
     6     2    34 ar  
     7     3     4 ar  
     8     3     7 ar  
     9     3    37 1   
    10     4    38 1   
    11     5     6 ar  
    12     5     7 ar  
    13     5    39 1   
    14     7    73 1   
    15     8     9 2   
    16     9    10 1   
    17     9    31 1   
    18    10    11 1   
    19    10    16 1   
    20    10    42 1   
    21    11    12 1   
    22    11    43 1   
    23    11    44 1   
    24    12    13 1   
    25    12    14 1   
    26    12    15 1   
    27    15    16 1   
    28    15    45 1   
    29    15    46 1   
    30    16    17 1   
    31    17    18 1   
    32    17    30 2   
    33    18    19 1   
    34    18    26 1   
    35    18    47 1   
    36    19    20 1   
    37    19    48 1   
    38    20    21 1   
    39    20    25 1   
    40    20    49 1   
    41    21    22 1   
    42    21    50 1   
    43    21    51 1   
    44    22    23 1   
    45    22    52 1   
    46    22    53 1   
    47    23    24 1   
    48    23    54 1   
    49    23    55 1   
    50    24    25 1   
    51    24    56 1   
    52    24    57 1   
    53    25    58 1   
    54    25    59 1   
    55    26    27 1   
    56    26    60 1   
    57    26    61 1   
    58    27    28 1   
    59    27    29 1   
    60    27    62 1   
    61    28    63 1   
    62    28    64 1   
    63    28    65 1   
    64    29    66 1   
    65    29    67 1   
    66    29    68 1   
    67    31    69 1   
    68    31    73 1   
    69    32    33 ar  
    70    32    70 1   
    71    33    34 ar  
    72    34    35 1   
    73    35    71 1   
    74    35    72 1   
    75    40    73 1   
    76    41    73 1   
@<TRIPOS>SUBSTRUCTURE
     1 R2Y         1 TEMP              0 ****  ****    0 ROOT
