@<TRIPOS>MOLECULE
R2Y
   73    76     1     0     0
SMALL
abcg2


@<TRIPOS>ATOM
      1 C5          -8.1170   -10.8440    13.5600 ca         1 R2Y      -0.207000
      2 C13         -6.4750   -12.5310    12.9540 ca         1 R2Y      -0.120000
      3 C16         -7.0950   -14.4130    11.5680 ca         1 R2Y      -0.095000
      4 C14         -6.1450   -13.7150    12.2620 ca         1 R2Y      -0.078000
      5 C3          -8.7660   -12.8020    12.1830 ca         1 R2Y      -0.108000
      6 C4          -7.8030   -12.0580    12.9010 ca         1 R2Y       0.016000
      7 C18         -8.4340   -13.9610    11.5320 ca         1 R2Y      -0.090300
      8 O68         -8.2920   -16.9720     9.4910 o          1 R2Y      -0.607100
      9 C63         -8.6120   -15.9810     8.8540 c          1 R2Y       0.598100
     10 C57         -8.4280   -15.9450     7.3370 c5         1 R2Y       0.034700
     11 C58         -9.4320   -16.8820     6.6490 c5         1 R2Y      -0.141400
     12 C70         -8.5950   -17.5800     5.6030 c5         1 R2Y       0.174000
     13 F1          -8.5020   -16.8090     4.4780 f          1 R2Y      -0.108000
     14 F2          -9.1110   -18.7670     5.2000 f          1 R2Y      -0.108000
     15 C62         -7.2230   -17.7280     6.2310 c5         1 R2Y       0.059000
     16 N56         -7.1290   -16.5020     6.9930 n          1 R2Y      -0.414800
     17 C71         -6.0190   -15.9400     7.5190 c          1 R2Y       0.610100
     18 C41         -4.6950   -16.6600     7.2770 c3         1 R2Y       0.120500
     19 N43         -3.8120   -16.3910     8.3850 n7         1 R2Y      -0.855400
     20 C46         -4.1760   -17.0480     9.6340 c6         1 R2Y       0.169500
     21 C47         -3.5080   -16.3360    10.8050 c6         1 R2Y      -0.087900
     22 C49         -3.9190   -16.9440    12.1420 c6         1 R2Y      -0.073400
     23 C51         -3.6270   -18.4410    12.1830 c6         1 R2Y      -0.074400
     24 C53         -4.2760   -19.1630    11.0050 c6         1 R2Y      -0.073400
     25 C55         -3.8560   -18.5450     9.6740 c6         1 R2Y      -0.087900
     26 C38         -4.0980   -16.1420     5.9630 c3         1 R2Y      -0.080400
     27 C60         -2.8290   -16.8570     5.4900 c3         1 R2Y      -0.063700
     28 C61         -3.0470   -18.3540     5.2980 c3         1 R2Y      -0.091100
     29 C69         -2.3410   -16.2160     4.1940 c3         1 R2Y      -0.091100
     30 O44         -6.0980   -14.9010     8.1520 o          1 R2Y      -0.567100
     31 N69         -9.1930   -14.8980     9.3830 ns         1 R2Y      -0.484900
     32 C7          -7.1160   -10.1910    14.2160 ca         1 R2Y       0.377900
     33 N9          -5.8470   -10.6360    14.3060 nb         1 R2Y      -0.764000
     34 C11         -5.5260   -11.7640    13.7140 ca         1 R2Y       0.614900
     35 N12         -4.2300   -12.1730    13.8060 nv         1 R2Y      -1.047900
     36 H1          -9.1230   -10.4480    13.5390 ha         1 R2Y       0.122000
     37 H2          -6.8160   -15.3200    11.0470 ha         1 R2Y       0.135000
     38 H3          -5.1280   -14.0850    12.2600 ha         1 R2Y       0.114000
     39 H4          -9.7870   -12.4380    12.1530 ha         1 R2Y       0.111000
     40 H5         -10.4530   -14.2580    10.8920 h1         1 R2Y       0.064200
     41 H6          -9.5830   -15.7430    11.2270 h1         1 R2Y       0.064200
     42 H7          -8.5230   -14.9250     6.9570 h1         1 R2Y       0.082700
     43 H8         -10.2800   -16.3470     6.2240 hc         1 R2Y       0.089200
     44 H9          -9.8140   -17.6320     7.3430 hc         1 R2Y       0.089200
     45 H10         -7.1980   -18.6200     6.8660 h1         1 R2Y       0.077700
     46 H11         -6.4460   -17.8200     5.4720 h1         1 R2Y       0.077700
     47 H12         -4.9090   -17.7340     7.1650 h1         1 R2Y       0.030700
     48 H13         -2.8630   -16.6440     8.1380 hn         1 R2Y       0.421000
     49 H15         -5.2600   -16.9360     9.7570 h1         1 R2Y       0.069700
     50 H16         -2.4190   -16.4020    10.6940 hc         1 R2Y       0.041450
     51 H17         -3.7620   -15.2740    10.7620 hc         1 R2Y       0.041450
     52 H18         -3.4080   -16.4330    12.9620 hc         1 R2Y       0.040450
     53 H19         -4.9920   -16.7800    12.3000 hc         1 R2Y       0.040450
     54 H20         -3.9760   -18.8690    13.1270 hc         1 R2Y       0.037700
     55 H21         -2.5440   -18.5980    12.1520 hc         1 R2Y       0.037700
     56 H22         -5.3660   -19.1020    11.1000 hc         1 R2Y       0.040450
     57 H23         -4.0240   -20.2260    11.0250 hc         1 R2Y       0.040450
     58 H24         -4.3480   -19.0640     8.8470 hc         1 R2Y       0.041450
     59 H25         -2.7770   -18.6780     9.5300 hc         1 R2Y       0.041450
     60 H26         -3.8940   -15.0740     6.0810 hc         1 R2Y       0.058700
     61 H27         -4.8510   -16.2240     5.1710 hc         1 R2Y       0.058700
     62 H28         -2.0390   -16.7190     6.2370 hc         1 R2Y       0.047700
     63 H29         -3.3180   -18.8590     6.2260 hc         1 R2Y       0.034367
     64 H30         -3.8430   -18.5420     4.5720 hc         1 R2Y       0.034367
     65 H31         -2.1410   -18.8340     4.9260 hc         1 R2Y       0.034367
     66 H32         -2.1420   -15.1510     4.3230 hc         1 R2Y       0.034367
     67 H33         -1.4210   -16.6870     3.8450 hc         1 R2Y       0.034367
     68 H34         -3.0890   -16.3210     3.4040 hc         1 R2Y       0.034367
     69 H35         -9.3340   -14.0910     8.7950 hn         1 R2Y       0.320500
     70 H36         -7.3160    -9.2520    14.7210 h4         1 R2Y       0.014100
     71 H37         -3.6780   -11.6920    14.4990 hn         1 R2Y       0.469500
     72 H38         -4.0300   -13.1570    13.7540 hn         1 R2Y       0.469500
     73 C15         -9.4840   -14.7490    10.7910 c3         1 R2Y       0.144300
@<TRIPOS>BOND
     1     1     6 ar  
     2     1    32 ar  
     3     1    36 1   
     4     2     4 ar  
     5     2     6 ar  
     6     2    34 ar  
     7     3     4 ar  
     8     3     7 ar  
     9     3    37 1   
    10     4    38 1   
    11     5     6 ar  
    12     5     7 ar  
    13     5    39 1   
    14     7    73 1   
    15     8     9 2   
    16     9    10 1   
    17     9    31 1   
    18    10    11 1   
    19    10    16 1   
    20    10    42 1   
    21    11    12 1   
    22    11    43 1   
    23    11    44 1   
    24    12    13 1   
    25    12    14 1   
    26    12    15 1   
    27    15    16 1   
    28    15    45 1   
    29    15    46 1   
    30    16    17 1   
    31    17    18 1   
    32    17    30 2   
    33    18    19 1   
    34    18    26 1   
    35    18    47 1   
    36    19    20 1   
    37    19    48 1   
    38    20    21 1   
    39    20    25 1   
    40    20    49 1   
    41    21    22 1   
    42    21    50 1   
    43    21    51 1   
    44    22    23 1   
    45    22    52 1   
    46    22    53 1   
    47    23    24 1   
    48    23    54 1   
    49    23    55 1   
    50    24    25 1   
    51    24    56 1   
    52    24    57 1   
    53    25    58 1   
    54    25    59 1   
    55    26    27 1   
    56    26    60 1   
    57    26    61 1   
    58    27    28 1   
    59    27    29 1   
    60    27    62 1   
    61    28    63 1   
    62    28    64 1   
    63    28    65 1   
    64    29    66 1   
    65    29    67 1   
    66    29    68 1   
    67    31    69 1   
    68    31    73 1   
    69    32    33 ar  
    70    32    70 1   
    71    33    34 ar  
    72    34    35 1   
    73    35    71 1   
    74    35    72 1   
    75    40    73 1   
    76    41    73 1   
@<TRIPOS>SUBSTRUCTURE
     1 R2Y         1 TEMP              0 ****  ****    0 ROOT
