@<TRIPOS>MOLECULE
R30
   51    54     1     0     0
SMALL
No Charge or Current Charge


@<TRIPOS>ATOM
      1 O01         -1.1520    -1.1080     0.6730 o          1 R30      -0.554100
      2 C02         -1.1830     0.0220     0.1930 c          1 R30       0.587100
      3 N03          0.0030     0.6250    -0.3250 n          1 R30      -0.237400
      4 C04          1.3150     0.0280    -0.1860 ca         1 R30      -0.078000
      5 C05          1.7060    -0.5610     1.0340 ca         1 R30      -0.072500
      6 C06          2.9100    -1.2770     1.1360 ca         1 R30      -0.144500
      7 C07          3.7280    -1.4740     0.0090 ca         1 R30      -0.012000
      8 N08          4.9310    -2.2110     0.1860 ns         1 R30      -0.148000
      9 C09          5.9840    -2.5040    -0.6710 c          1 R30       0.606100
     10 C10          7.0810    -3.3780    -0.0450 c3         1 R30      -0.158400
     11 C11          8.3640    -2.5680     0.2490 c3         1 R30      -0.080100
     12 O12          6.0540    -2.1320    -1.8370 o          1 R30      -0.578100
     13 C13          3.2960    -0.9660    -1.2340 ca         1 R30      -0.144500
     14 C14          2.0910    -0.2480    -1.3310 ca         1 R30      -0.072500
     15 C15         -0.1090     1.8350    -1.1820 c3         1 R30       0.175300
     16 C16         -0.4480     3.0690    -0.3800 cc         1 R30      -0.145300
     17 C17          0.1090     3.4350     0.8220 cd         1 R30      -0.230000
     18 S18         -0.5730     4.9470     1.4440 ss         1 R30       0.223000
     19 C19         -1.6250     5.0560     0.0260 cd         1 R30      -0.242000
     20 C20         -1.4270     3.9980    -0.8210 cc         1 R30      -0.130000
     21 C21         -2.5020     0.8230     0.1690 c3         1 R30       0.000600
     22 N22         -3.6740     0.0690     0.6390 na         1 R30       0.072600
     23 N23         -4.2580     0.2210     1.8880 nc         1 R30      -0.161400
     24 N24         -5.3230    -0.5820     1.9450 nd         1 R30      -0.215400
     25 C25         -5.4090    -1.2280     0.7190 ca         1 R30       0.014400
     26 C26         -4.3960    -0.8280    -0.0920 ca         1 R30      -0.060200
     27 C27         -4.2260    -1.3150    -1.3960 ca         1 R30      -0.107000
     28 C28         -5.1640    -2.2600    -1.8630 ca         1 R30      -0.076000
     29 C29         -6.2260    -2.6830    -1.0260 ca         1 R30      -0.138000
     30 C30         -6.3570    -2.1660     0.2830 ca         1 R30      -0.028000
     31 H051         1.0890    -0.4380     1.9220 ha         1 R30       0.120000
     32 H061         3.2040    -1.6880     2.1000 ha         1 R30       0.131500
     33 H081         5.0410    -2.5930     1.1170 hn         1 R30       0.150000
     34 H101         6.7270    -3.8130     0.8970 hc         1 R30       0.058200
     35 H102         7.3360    -4.1800    -0.7480 hc         1 R30       0.058200
     36 H111         9.1320    -3.2140     0.6920 hc         1 R30       0.045033
     37 H112         8.7730    -2.1360    -0.6730 hc         1 R30       0.045033
     38 H113         8.1560    -1.7510     0.9500 hc         1 R30       0.045033
     39 H131         3.8670    -1.1340    -2.1410 ha         1 R30       0.131500
     40 H141         1.7650     0.0890    -2.3130 ha         1 R30       0.120000
     41 H151         0.8450     2.0240    -1.6880 h1         1 R30       0.058700
     42 H152        -0.8590     1.6640    -1.9650 h1         1 R30       0.058700
     43 H171         0.8740     2.9170     1.3880 h4         1 R30       0.158000
     44 H191        -2.3100     5.8880    -0.0840 h4         1 R30       0.153000
     45 H201        -1.9700     3.8700    -1.7540 ha         1 R30       0.133000
     46 H211        -2.3740     1.7040     0.8060 h1         1 R30       0.089700
     47 H212        -2.6990     1.1600    -0.8540 h1         1 R30       0.089700
     48 H271        -3.4040    -0.9840    -2.0270 ha         1 R30       0.123000
     49 H281        -5.0710    -2.6650    -2.8680 ha         1 R30       0.115000
     50 H291        -6.9460    -3.4120    -1.3920 ha         1 R30       0.117000
     51 H301        -7.1670    -2.4840     0.9350 ha         1 R30       0.133000
@<TRIPOS>BOND
     1     1     2 2   
     2     2     3 1   
     3     2    21 1   
     4     3     4 1   
     5     3    15 1   
     6     4     5 ar  
     7     4    14 ar  
     8     5     6 ar  
     9     5    31 1   
    10     6     7 ar  
    11     6    32 1   
    12     7     8 1   
    13     7    13 ar  
    14     8     9 1   
    15     8    33 1   
    16     9    10 1   
    17     9    12 2   
    18    10    11 1   
    19    10    34 1   
    20    10    35 1   
    21    11    36 1   
    22    11    37 1   
    23    11    38 1   
    24    13    14 ar  
    25    13    39 1   
    26    14    40 1   
    27    15    16 1   
    28    15    41 1   
    29    15    42 1   
    30    16    17 2   
    31    16    20 1   
    32    17    18 1   
    33    17    43 1   
    34    18    19 1   
    35    19    20 2   
    36    19    44 1   
    37    20    45 1   
    38    21    22 1   
    39    21    46 1   
    40    21    47 1   
    41    22    23 1   
    42    22    26 1   
    43    23    24 2   
    44    24    25 1   
    45    25    26 ar  
    46    25    30 ar  
    47    26    27 ar  
    48    27    28 ar  
    49    27    48 1   
    50    28    29 ar  
    51    28    49 1   
    52    29    30 ar  
    53    29    50 1   
    54    30    51 1   
@<TRIPOS>SUBSTRUCTURE
     1 R30         1 TEMP              0 ****  ****    0 ROOT
