@<TRIPOS>MOLECULE
R30
   51    54     1     0     0
SMALL
abcg2


@<TRIPOS>ATOM
      1 O01         -1.3960    -1.2040     0.2240 o          1 R30      -0.554100
      2 C02         -1.3770    -0.0780    -0.2280 c          1 R30       0.587100
      3 N03         -0.2350     0.5790    -0.5400 n          1 R30      -0.237400
      4 C04          1.0170    -0.0580    -0.3090 ca         1 R30      -0.078000
      5 C05          1.4860    -0.2800     0.9790 ca         1 R30      -0.072500
      6 C06          2.7170    -0.8740     1.1770 ca         1 R30      -0.144500
      7 C07          3.5150    -1.2570     0.0950 ca         1 R30      -0.012000
      8 N08          4.7420    -1.8490     0.4010 ns         1 R30      -0.148000
      9 C09          5.7740    -2.1740    -0.4220 c          1 R30       0.606100
     10 C10          6.9400    -2.8330     0.2830 c3         1 R30      -0.158400
     11 C11          8.2850    -2.4020    -0.2810 c3         1 R30      -0.080100
     12 O12          5.7690    -1.9760    -1.6240 o          1 R30      -0.578100
     13 C13          3.0420    -1.0360    -1.1990 ca         1 R30      -0.144500
     14 C14          1.7990    -0.4490    -1.3850 ca         1 R30      -0.072500
     15 C15         -0.2090     1.9280    -1.0810 c3         1 R30       0.175300
     16 C16         -0.1660     3.0060    -0.0350 cc         1 R30      -0.145300
     17 C17         -0.3730     2.8340     1.3000 cd         1 R30      -0.230000
     18 S18         -0.2680     4.3140     2.1580 ss         1 R30       0.223000
     19 C19          0.0530     5.1900     0.7220 cd         1 R30      -0.242000
     20 C20          0.0800     4.3730    -0.3640 cc         1 R30      -0.130000
     21 C21         -2.6790     0.6780    -0.4910 c3         1 R30       0.000600
     22 N22         -3.7880    -0.0260     0.0780 na         1 R30       0.072600
     23 N23         -4.1890     0.2370     1.3190 nc         1 R30      -0.161400
     24 N24         -5.1290    -0.5590     1.6490 nd         1 R30      -0.215400
     25 C25         -5.3670    -1.4020     0.6000 ca         1 R30       0.014400
     26 C26         -4.4860    -1.0700    -0.4300 ca         1 R30      -0.060200
     27 C27         -4.4690    -1.7440    -1.6520 ca         1 R30      -0.107000
     28 C28         -5.3820    -2.7650    -1.7900 ca         1 R30      -0.076000
     29 C29         -6.2810    -3.1120    -0.7570 ca         1 R30      -0.138000
     30 C30         -6.2890    -2.4430     0.4450 ca         1 R30      -0.028000
     31 H051         0.8980     0.0150     1.8380 ha         1 R30       0.120000
     32 H061         3.0680    -1.0380     2.1890 ha         1 R30       0.131500
     33 H081         4.8910    -2.0250     1.3820 hn         1 R30       0.150000
     34 H101         6.9020    -2.6440     1.3570 hc         1 R30       0.058200
     35 H102         6.8170    -3.9140     0.1620 hc         1 R30       0.058200
     36 H111         9.0900    -2.9270     0.2300 hc         1 R30       0.045033
     37 H112         8.3640    -2.6260    -1.3440 hc         1 R30       0.045033
     38 H113         8.4470    -1.3330    -0.1480 hc         1 R30       0.045033
     39 H131         3.6200    -1.3210    -2.0620 ha         1 R30       0.131500
     40 H141         1.4390    -0.2940    -2.3950 ha         1 R30       0.120000
     41 H151         0.6670     2.0140    -1.7260 h1         1 R30       0.058700
     42 H152        -1.0610     2.0840    -1.7450 h1         1 R30       0.058700
     43 H171        -0.5820     1.9210     1.8370 h4         1 R30       0.158000
     44 H191         0.2100     6.2570     0.7520 h4         1 R30       0.153000
     45 H201         0.2700     4.7230    -1.3700 ha         1 R30       0.133000
     46 H211        -2.6620     1.6820    -0.0660 h1         1 R30       0.089700
     47 H212        -2.8410     0.7880    -1.5650 h1         1 R30       0.089700
     48 H271        -3.7810    -1.4900    -2.4470 ha         1 R30       0.123000
     49 H281        -5.4130    -3.3230    -2.7160 ha         1 R30       0.115000
     50 H291        -6.9750    -3.9250    -0.9200 ha         1 R30       0.117000
     51 H301        -6.9760    -2.7080     1.2380 ha         1 R30       0.133000
@<TRIPOS>BOND
     1     1     2 2   
     2     2     3 1   
     3     2    21 1   
     4     3     4 1   
     5     3    15 1   
     6     4     5 ar  
     7     4    14 ar  
     8     5     6 ar  
     9     5    31 1   
    10     6     7 ar  
    11     6    32 1   
    12     7     8 1   
    13     7    13 ar  
    14     8     9 1   
    15     8    33 1   
    16     9    10 1   
    17     9    12 2   
    18    10    11 1   
    19    10    34 1   
    20    10    35 1   
    21    11    36 1   
    22    11    37 1   
    23    11    38 1   
    24    13    14 ar  
    25    13    39 1   
    26    14    40 1   
    27    15    16 1   
    28    15    41 1   
    29    15    42 1   
    30    16    17 2   
    31    16    20 1   
    32    17    18 1   
    33    17    43 1   
    34    18    19 1   
    35    19    20 2   
    36    19    44 1   
    37    20    45 1   
    38    21    22 1   
    39    21    46 1   
    40    21    47 1   
    41    22    23 1   
    42    22    26 1   
    43    23    24 2   
    44    24    25 1   
    45    25    26 ar  
    46    25    30 ar  
    47    26    27 ar  
    48    27    28 ar  
    49    27    48 1   
    50    28    29 ar  
    51    28    49 1   
    52    29    30 ar  
    53    29    50 1   
    54    30    51 1   
@<TRIPOS>SUBSTRUCTURE
     1 R30         1 TEMP              0 ****  ****    0 ROOT
